5362858
 OpenBabel02201912233D

 18 17  0  0  1  0  0  0  0  0999 V2000
    0.8311    0.0192   -0.0772 O   0  0  0  0  0  0  0  0  0  0  0  0
    0.3214   -1.0552   -0.8162 N   0  0  0  0  0  0  0  0  0  0  0  0
   -1.7954   -2.0704   -1.4744 C   0  0  3  0  0  0  0  0  0  0  0  0
   -2.7161   -2.7953   -0.4851 C   0  0  0  0  0  0  0  0  0  0  0  0
   -2.6105   -1.3757   -2.5615 C   0  0  0  0  0  0  0  0  0  0  0  0
   -1.9519   -3.5497    0.5954 C   0  0  0  0  0  0  0  0  0  0  0  0
   -0.9706   -1.0234   -0.7635 C   0  0  0  0  0  0  0  0  0  0  0  0
   -1.1202   -2.7945   -1.9461 H   0  0  0  0  0  0  0  0  0  0  0  0
   -3.3969   -2.0822   -0.0036 H   0  0  0  0  0  0  0  0  0  0  0  0
   -3.3398   -3.5126   -1.0326 H   0  0  0  0  0  0  0  0  0  0  0  0
   -1.9529   -0.8635   -3.2727 H   0  0  0  0  0  0  0  0  0  0  0  0
   -3.2163   -2.0972   -3.1193 H   0  0  0  0  0  0  0  0  0  0  0  0
   -3.2831   -0.6215   -2.1364 H   0  0  0  0  0  0  0  0  0  0  0  0
   -1.3863   -2.8659    1.2355 H   0  0  0  0  0  0  0  0  0  0  0  0
   -2.6500   -4.1006    1.2339 H   0  0  0  0  0  0  0  0  0  0  0  0
   -1.2539   -4.2688    0.1554 H   0  0  0  0  0  0  0  0  0  0  0  0
   -1.5129   -0.2374   -0.2064 H   0  0  0  0  0  0  0  0  0  0  0  0
    1.7941   -0.0976   -0.1793 H   0  0  0  0  0  0  0  0  0  0  0  0
  1  2  1  0  0  0  0
  1 18  1  0  0  0  0
  2  7  2  0  0  0  0
  3  4  1  0  0  0  0
  3  5  1  0  0  0  0
  3  7  1  0  0  0  0
  3  8  1  0  0  0  0
  4  6  1  0  0  0  0
  4  9  1  0  0  0  0
  4 10  1  0  0  0  0
  5 11  1  0  0  0  0
  5 12  1  0  0  0  0
  5 13  1  0  0  0  0
  6 14  1  0  0  0  0
  6 15  1  0  0  0  0
  6 16  1  0  0  0  0
  7 17  1  0  0  0  0
M  END
> <PUBCHEM_COMPOUND_CID>
5362858

> <PUBCHEM_COMPOUND_CANONICALIZED>
1

> <PUBCHEM_CACTVS_COMPLEXITY>
61.1

> <PUBCHEM_CACTVS_HBOND_ACCEPTOR>
2

> <PUBCHEM_CACTVS_HBOND_DONOR>
1

> <PUBCHEM_CACTVS_ROTATABLE_BOND>
2

> <PUBCHEM_CACTVS_SUBSKEYS>
AAADccBiIAAAAAAAAAAAAAAAAAAAAAAAAAAAAAAAAAAAAAAAAAAAHAAECAAADQDBAAQCAAAQAAAgABAhAAAAAAAAAAAAAAAwAAAAAAAAAAAAAAAAAAAAAAAAAAAIAAAAAAAAAAAAAAAAAAAAAAAAAAAAAA==

> <PUBCHEM_IUPAC_OPENEYE_NAME>
(1~{E})-2-methylbutanal oxime

> <PUBCHEM_IUPAC_CAS_NAME>
(1~{E})-2-methylbutanal oxime

> <PUBCHEM_IUPAC_NAME>
(~{N}~{E})-~{N}-(2-methylbutylidene)hydroxylamine

> <PUBCHEM_IUPAC_SYSTEMATIC_NAME>
(~{N}~{E})-~{N}-(2-methylbutylidene)hydroxylamine

> <PUBCHEM_IUPAC_TRADITIONAL_NAME>
(1~{E})-2-methylbutyraldoxime

> <PUBCHEM_IUPAC_INCHI>
InChI=1S/C5H11NO/c1-3-5(2)4-6-7/h4-5,7H,3H2,1-2H3/b6-4+

> <PUBCHEM_IUPAC_INCHIKEY>
SEWWFHKIKWFJNV-GQCTYLIASA-N

> <PUBCHEM_XLOGP3_AA>
1.4

> <PUBCHEM_EXACT_MASS>
101.084

> <PUBCHEM_MOLECULAR_FORMULA>
C5H11NO

> <PUBCHEM_MOLECULAR_WEIGHT>
101.149

> <PUBCHEM_OPENEYE_CAN_SMILES>
CCC(C)C=NO

> <PUBCHEM_OPENEYE_ISO_SMILES>
CCC(C)/C=N/O

> <PUBCHEM_CACTVS_TPSA>
32.6

> <PUBCHEM_MONOISOTOPIC_WEIGHT>
101.084

> <PUBCHEM_TOTAL_CHARGE>
0

> <PUBCHEM_HEAVY_ATOM_COUNT>
7

> <PUBCHEM_ATOM_DEF_STEREO_COUNT>
0

> <PUBCHEM_ATOM_UDEF_STEREO_COUNT>
1

> <PUBCHEM_BOND_DEF_STEREO_COUNT>
1

> <PUBCHEM_BOND_UDEF_STEREO_COUNT>
0

> <PUBCHEM_ISOTOPIC_ATOM_COUNT>
0

> <PUBCHEM_COMPONENT_COUNT>
1

> <PUBCHEM_CACTVS_TAUTO_COUNT>
3

> <PUBCHEM_COORDINATE_TYPE>
1 __ 5 __ 255

> <PUBCHEM_BONDANNOTATIONS>
3  8  3

$$$$
5357349
 OpenBabel02201912233D

 18 17  0  0  0  0  0  0  0  0999 V2000
    0.7094    0.0203    0.2043 O   0  0  0  0  0  0  0  0  0  0  0  0
   -0.0074   -1.1585   -0.0557 N   0  0  0  0  0  0  0  0  0  0  0  0
   -2.0777   -1.9297   -1.0868 C   0  0  0  0  0  0  0  0  0  0  0  0
   -2.1812   -1.9320   -2.6177 C   0  0  0  0  0  0  0  0  0  0  0  0
   -3.4115   -1.6741   -0.3925 C   0  0  0  0  0  0  0  0  0  0  0  0
   -3.1377   -2.9817   -3.1667 C   0  0  0  0  0  0  0  0  0  0  0  0
   -1.1003   -0.8543   -0.6757 C   0  0  0  0  0  0  0  0  0  0  0  0
   -1.6819   -2.8945   -0.7467 H   0  0  0  0  0  0  0  0  0  0  0  0
   -2.4840   -0.9420   -2.9860 H   0  0  0  0  0  0  0  0  0  0  0  0
   -1.1824   -2.1125   -3.0354 H   0  0  0  0  0  0  0  0  0  0  0  0
   -3.9431   -0.8289   -0.8420 H   0  0  0  0  0  0  0  0  0  0  0  0
   -4.0578   -2.5550   -0.4538 H   0  0  0  0  0  0  0  0  0  0  0  0
   -3.2633   -1.4452    0.6692 H   0  0  0  0  0  0  0  0  0  0  0  0
   -2.7526   -3.3875   -4.1083 H   0  0  0  0  0  0  0  0  0  0  0  0
   -3.2786   -3.8171   -2.4742 H   0  0  0  0  0  0  0  0  0  0  0  0
   -4.1170   -2.5385   -3.3763 H   0  0  0  0  0  0  0  0  0  0  0  0
   -1.3574    0.1918   -0.9255 H   0  0  0  0  0  0  0  0  0  0  0  0
    1.4980   -0.3205    0.6642 H   0  0  0  0  0  0  0  0  0  0  0  0
  1  2  1  0  0  0  0
  1 18  1  0  0  0  0
  2  7  2  0  0  0  0
  3  4  1  0  0  0  0
  3  5  1  0  0  0  0
  3  6  1  0  0  0  0
  3  8  1  0  0  0  0
  4  7  1  0  0  0  0
  4  9  1  0  0  0  0
  4 10  1  0  0  0  0
  5 11  1  0  0  0  0
  5 12  1  0  0  0  0
  5 13  1  0  0  0  0
  6 14  1  0  0  0  0
  6 15  1  0  0  0  0
  6 16  1  0  0  0  0
  7 17  1  0  0  0  0
M  END
> <PUBCHEM_COMPOUND_CID>
5357349

> <PUBCHEM_COMPOUND_CANONICALIZED>
1

> <PUBCHEM_CACTVS_COMPLEXITY>
59.1

> <PUBCHEM_CACTVS_HBOND_ACCEPTOR>
2

> <PUBCHEM_CACTVS_HBOND_DONOR>
1

> <PUBCHEM_CACTVS_ROTATABLE_BOND>
2

> <PUBCHEM_CACTVS_SUBSKEYS>
AAADccBiIAAAAAAAAAAAAAAAAAAAAAAAAAAAAAAAAAAAAAAAAAAAHAAECAAADQDBAAQCAAAQAAAgABAhAAAAAAAAAAAAAAAwAAAAAAAAAAAAAAAAAAAAAAAAAAAIAAAAAAAAAAAAAAAAAAAAAAAAAAAAAA==

> <PUBCHEM_IUPAC_OPENEYE_NAME>
(1~{E})-3-methylbutanal oxime

> <PUBCHEM_IUPAC_CAS_NAME>
(1~{E})-3-methylbutanal oxime

> <PUBCHEM_IUPAC_NAME>
(~{N}~{E})-~{N}-(3-methylbutylidene)hydroxylamine

> <PUBCHEM_IUPAC_SYSTEMATIC_NAME>
(~{N}~{E})-~{N}-(3-methylbutylidene)hydroxylamine

> <PUBCHEM_IUPAC_TRADITIONAL_NAME>
(1~{E})-3-methylbutyraldoxime

> <PUBCHEM_IUPAC_INCHI>
InChI=1S/C5H11NO/c1-5(2)3-4-6-7/h4-5,7H,3H2,1-2H3/b6-4+

> <PUBCHEM_IUPAC_INCHIKEY>
JAUPRNSQRRCCRR-GQCTYLIASA-N

> <PUBCHEM_XLOGP3_AA>
1.2

> <PUBCHEM_EXACT_MASS>
101.084

> <PUBCHEM_MOLECULAR_FORMULA>
C5H11NO

> <PUBCHEM_MOLECULAR_WEIGHT>
101.149

> <PUBCHEM_OPENEYE_CAN_SMILES>
CC(C)CC=NO

> <PUBCHEM_OPENEYE_ISO_SMILES>
CC(C)C/C=N/O

> <PUBCHEM_CACTVS_TPSA>
32.6

> <PUBCHEM_MONOISOTOPIC_WEIGHT>
101.084

> <PUBCHEM_TOTAL_CHARGE>
0

> <PUBCHEM_HEAVY_ATOM_COUNT>
7

> <PUBCHEM_ATOM_DEF_STEREO_COUNT>
0

> <PUBCHEM_ATOM_UDEF_STEREO_COUNT>
0

> <PUBCHEM_BOND_DEF_STEREO_COUNT>
1

> <PUBCHEM_BOND_UDEF_STEREO_COUNT>
0

> <PUBCHEM_ISOTOPIC_ATOM_COUNT>
0

> <PUBCHEM_COMPONENT_COUNT>
1

> <PUBCHEM_CACTVS_TAUTO_COUNT>
3

> <PUBCHEM_COORDINATE_TYPE>
1 __ 5 __ 255

$$$$
31260
 OpenBabel02201912233D

 18 17  0  0  0  0  0  0  0  0999 V2000
   -0.8403    0.5034   -1.1087 O   0  0  0  0  0  0  0  0  0  0  0  0
    2.6774    1.8637   -1.5704 C   0  0  0  0  0  0  0  0  0  0  0  0
    1.1408    1.8139   -1.5228 C   0  0  0  0  0  0  0  0  0  0  0  0
    3.2606    0.9420   -2.6425 C   0  0  0  0  0  0  0  0  0  0  0  0
    3.1427    3.3009   -1.8184 C   0  0  0  0  0  0  0  0  0  0  0  0
    0.5777    0.4348   -1.1964 C   0  0  0  0  0  0  0  0  0  0  0  0
    3.0688    1.5460   -0.5959 H   0  0  0  0  0  0  0  0  0  0  0  0
    0.7183    2.1574   -2.4760 H   0  0  0  0  0  0  0  0  0  0  0  0
    0.7772    2.5273   -0.7709 H   0  0  0  0  0  0  0  0  0  0  0  0
    2.8493    1.1720   -3.6307 H   0  0  0  0  0  0  0  0  0  0  0  0
    4.3496    1.0492   -2.6962 H   0  0  0  0  0  0  0  0  0  0  0  0
    2.7718    3.9717   -1.0363 H   0  0  0  0  0  0  0  0  0  0  0  0
    4.2362    3.3618   -1.8176 H   0  0  0  0  0  0  0  0  0  0  0  0
    2.7838    3.6740   -2.7839 H   0  0  0  0  0  0  0  0  0  0  0  0
    3.0516   -0.1092   -2.4212 H   0  0  0  0  0  0  0  0  0  0  0  0
    0.9664    0.0599   -0.2444 H   0  0  0  0  0  0  0  0  0  0  0  0
    0.8196   -0.2900   -1.9786 H   0  0  0  0  0  0  0  0  0  0  0  0
   -1.0598    1.1032   -0.3756 H   0  0  0  0  0  0  0  0  0  0  0  0
  1  6  1  0  0  0  0
  1 18  1  0  0  0  0
  2  3  1  0  0  0  0
  2  4  1  0  0  0  0
  2  5  1  0  0  0  0
  2  7  1  0  0  0  0
  3  6  1  0  0  0  0
  3  8  1  0  0  0  0
  3  9  1  0  0  0  0
  4 10  1  0  0  0  0
  4 11  1  0  0  0  0
  4 15  1  0  0  0  0
  5 12  1  0  0  0  0
  5 13  1  0  0  0  0
  5 14  1  0  0  0  0
  6 16  1  0  0  0  0
  6 17  1  0  0  0  0
M  END
> <PUBCHEM_COMPOUND_CID>
31260

> <PUBCHEM_COMPOUND_CANONICALIZED>
1

> <PUBCHEM_CACTVS_COMPLEXITY>
25.1

> <PUBCHEM_CACTVS_HBOND_ACCEPTOR>
1

> <PUBCHEM_CACTVS_HBOND_DONOR>
1

> <PUBCHEM_CACTVS_ROTATABLE_BOND>
2

> <PUBCHEM_CACTVS_SUBSKEYS>
AAADccBgIAAAAAAAAAAAAAAAAAAAAAAAAAAAAAAAAAAAAAAAAAAAGgAACAAADQCggAICAAAAAgAAAAAAAAAAAAAAAAAAAAAAAAAAEAAAAAAAQAAEAAAAAAAAAAAIAAAAAAAAAAAAAAAAAAAAAAAAAAAAAA==

> <PUBCHEM_IUPAC_OPENEYE_NAME>
3-methylbutan-1-ol

> <PUBCHEM_IUPAC_CAS_NAME>
3-methyl-1-butanol

> <PUBCHEM_IUPAC_NAME>
3-methylbutan-1-ol

> <PUBCHEM_IUPAC_SYSTEMATIC_NAME>
3-methylbutan-1-ol

> <PUBCHEM_IUPAC_TRADITIONAL_NAME>
3-methylbutan-1-ol

> <PUBCHEM_IUPAC_INCHI>
InChI=1S/C5H12O/c1-5(2)3-4-6/h5-6H,3-4H2,1-2H3

> <PUBCHEM_IUPAC_INCHIKEY>
PHTQWCKDNZKARW-UHFFFAOYSA-N

> <PUBCHEM_XLOGP3>
1.2

> <PUBCHEM_EXACT_MASS>
88.089

> <PUBCHEM_MOLECULAR_FORMULA>
C5H12O

> <PUBCHEM_MOLECULAR_WEIGHT>
88.15

> <PUBCHEM_OPENEYE_CAN_SMILES>
CC(C)CCO

> <PUBCHEM_OPENEYE_ISO_SMILES>
CC(C)CCO

> <PUBCHEM_CACTVS_TPSA>
20.2

> <PUBCHEM_MONOISOTOPIC_WEIGHT>
88.089

> <PUBCHEM_TOTAL_CHARGE>
0

> <PUBCHEM_HEAVY_ATOM_COUNT>
6

> <PUBCHEM_ATOM_DEF_STEREO_COUNT>
0

> <PUBCHEM_ATOM_UDEF_STEREO_COUNT>
0

> <PUBCHEM_BOND_DEF_STEREO_COUNT>
0

> <PUBCHEM_BOND_UDEF_STEREO_COUNT>
0

> <PUBCHEM_ISOTOPIC_ATOM_COUNT>
0

> <PUBCHEM_COMPONENT_COUNT>
1

> <PUBCHEM_CACTVS_TAUTO_COUNT>
-1

> <PUBCHEM_COORDINATE_TYPE>
1 __ 5 __ 255

$$$$
10430
 OpenBabel02201912233D

 17 16  0  0  0  0  0  0  0  0999 V2000
    0.8503    1.1611   -1.3164 O   0  0  0  0  0  0  0  0  0  0  0  0
    1.1386   -1.0474   -1.2074 O   0  0  0  0  0  0  0  0  0  0  0  0
   -1.6895   -1.3245   -0.4118 C   0  0  0  0  0  0  0  0  0  0  0  0
   -1.1301   -0.1353   -1.2064 C   0  0  0  0  0  0  0  0  0  0  0  0
   -1.2884   -1.2636    1.0640 C   0  0  0  0  0  0  0  0  0  0  0  0
   -3.2147   -1.3519   -0.5318 C   0  0  0  0  0  0  0  0  0  0  0  0
    0.3757   -0.0970   -1.2273 C   0  0  0  0  0  0  0  0  0  0  0  0
   -1.2969   -2.2585   -0.8336 H   0  0  0  0  0  0  0  0  0  0  0  0
   -1.5023    0.8015   -0.7768 H   0  0  0  0  0  0  0  0  0  0  0  0
   -1.4640   -0.1833   -2.2503 H   0  0  0  0  0  0  0  0  0  0  0  0
   -3.5220   -1.4347   -1.5795 H   0  0  0  0  0  0  0  0  0  0  0  0
   -3.6335   -2.2076    0.0079 H   0  0  0  0  0  0  0  0  0  0  0  0
   -3.6614   -0.4406   -0.1189 H   0  0  0  0  0  0  0  0  0  0  0  0
   -1.5863   -0.3125    1.5189 H   0  0  0  0  0  0  0  0  0  0  0  0
   -1.7629   -2.0727    1.6301 H   0  0  0  0  0  0  0  0  0  0  0  0
   -0.2060   -1.3727    1.1861 H   0  0  0  0  0  0  0  0  0  0  0  0
    1.8238    1.0477   -1.3323 H   0  0  0  0  0  0  0  0  0  0  0  0
  1  7  1  0  0  0  0
  1 17  1  0  0  0  0
  2  7  2  0  0  0  0
  3  4  1  0  0  0  0
  3  5  1  0  0  0  0
  3  6  1  0  0  0  0
  3  8  1  0  0  0  0
  4  7  1  0  0  0  0
  4  9  1  0  0  0  0
  4 10  1  0  0  0  0
  5 14  1  0  0  0  0
  5 15  1  0  0  0  0
  5 16  1  0  0  0  0
  6 11  1  0  0  0  0
  6 12  1  0  0  0  0
  6 13  1  0  0  0  0
M  END
> <PUBCHEM_COMPOUND_CID>
10430

> <PUBCHEM_COMPOUND_CANONICALIZED>
1

> <PUBCHEM_CACTVS_COMPLEXITY>
66.5

> <PUBCHEM_CACTVS_HBOND_ACCEPTOR>
2

> <PUBCHEM_CACTVS_HBOND_DONOR>
1

> <PUBCHEM_CACTVS_ROTATABLE_BOND>
2

> <PUBCHEM_CACTVS_SUBSKEYS>
AAADccBgMAAAAAAAAAAAAAAAAAAAAAAAAAAAAAAAAAAAAAAAAAAAGgAACAAADQCAgAACCAAAAgAIAACQCAAAAAAAAAAAAAEAAAAAABAAAAAAQAAEAAAAAAAAAAAIAAAAAAAAAAAAAAAAAAAAAAAAAAAAAA==

> <PUBCHEM_IUPAC_OPENEYE_NAME>
3-methylbutanoic acid

> <PUBCHEM_IUPAC_CAS_NAME>
3-methylbutanoic acid

> <PUBCHEM_IUPAC_NAME>
3-methylbutanoic acid

> <PUBCHEM_IUPAC_SYSTEMATIC_NAME>
3-methylbutanoic acid

> <PUBCHEM_IUPAC_TRADITIONAL_NAME>
3-methylbutyric acid

> <PUBCHEM_IUPAC_INCHI>
InChI=1S/C5H10O2/c1-4(2)3-5(6)7/h4H,3H2,1-2H3,(H,6,7)

> <PUBCHEM_IUPAC_INCHIKEY>
GWYFCOCPABKNJV-UHFFFAOYSA-N

> <PUBCHEM_XLOGP3>
1.2

> <PUBCHEM_EXACT_MASS>
102.068

> <PUBCHEM_MOLECULAR_FORMULA>
C5H10O2

> <PUBCHEM_MOLECULAR_WEIGHT>
102.133

> <PUBCHEM_OPENEYE_CAN_SMILES>
CC(C)CC(=O)O

> <PUBCHEM_OPENEYE_ISO_SMILES>
CC(C)CC(=O)O

> <PUBCHEM_CACTVS_TPSA>
37.3

> <PUBCHEM_MONOISOTOPIC_WEIGHT>
102.068

> <PUBCHEM_TOTAL_CHARGE>
0

> <PUBCHEM_HEAVY_ATOM_COUNT>
7

> <PUBCHEM_ATOM_DEF_STEREO_COUNT>
0

> <PUBCHEM_ATOM_UDEF_STEREO_COUNT>
0

> <PUBCHEM_BOND_DEF_STEREO_COUNT>
0

> <PUBCHEM_BOND_UDEF_STEREO_COUNT>
0

> <PUBCHEM_ISOTOPIC_ATOM_COUNT>
0

> <PUBCHEM_COMPONENT_COUNT>
1

> <PUBCHEM_CACTVS_TAUTO_COUNT>
-1

> <PUBCHEM_COORDINATE_TYPE>
1 __ 5 __ 255

$$$$
13357
 OpenBabel02201912233D

 20 19  0  0  1  0  0  0  0  0999 V2000
    0.7652   -2.4146    0.8027 O   0  0  0  0  0  0  0  0  0  0  0  0
    1.0990   -0.1488    0.6554 O   0  0  0  0  0  0  0  0  0  0  0  0
   -1.1650   -1.0538    0.6847 C   0  0  3  0  0  0  0  0  0  0  0  0
   -1.6399    0.2990    1.2401 C   0  0  0  0  0  0  0  0  0  0  0  0
   -1.6454   -1.3167   -0.7393 C   0  0  0  0  0  0  0  0  0  0  0  0
   -3.1507    0.3972    1.3920 C   0  0  0  0  0  0  0  0  0  0  0  0
    0.3537   -1.1176    0.7146 C   0  0  0  0  0  0  0  0  0  0  0  0
    2.1839   -2.5742    0.8457 C   0  0  0  0  0  0  0  0  0  0  0  0
   -1.5427   -1.8419    1.3490 H   0  0  0  0  0  0  0  0  0  0  0  0
   -1.1824    0.4612    2.2247 H   0  0  0  0  0  0  0  0  0  0  0  0
   -1.2905    1.1181    0.5994 H   0  0  0  0  0  0  0  0  0  0  0  0
   -1.2716   -2.2793   -1.1056 H   0  0  0  0  0  0  0  0  0  0  0  0
   -2.7376   -1.3482   -0.7951 H   0  0  0  0  0  0  0  0  0  0  0  0
   -1.2874   -0.5437   -1.4280 H   0  0  0  0  0  0  0  0  0  0  0  0
   -3.5436   -0.4360    1.9830 H   0  0  0  0  0  0  0  0  0  0  0  0
   -3.4160    1.3289    1.9021 H   0  0  0  0  0  0  0  0  0  0  0  0
   -3.6514    0.4005    0.4194 H   0  0  0  0  0  0  0  0  0  0  0  0
    2.4072   -3.6409    0.7569 H   0  0  0  0  0  0  0  0  0  0  0  0
    2.6668   -2.0521    0.0135 H   0  0  0  0  0  0  0  0  0  0  0  0
    2.5708   -2.2163    1.8047 H   0  0  0  0  0  0  0  0  0  0  0  0
  1  7  1  0  0  0  0
  1  8  1  0  0  0  0
  2  7  2  0  0  0  0
  3  4  1  0  0  0  0
  3  5  1  0  0  0  0
  3  7  1  0  0  0  0
  3  9  1  0  0  0  0
  4  6  1  0  0  0  0
  4 10  1  0  0  0  0
  4 11  1  0  0  0  0
  5 12  1  0  0  0  0
  5 13  1  0  0  0  0
  5 14  1  0  0  0  0
  6 15  1  0  0  0  0
  6 16  1  0  0  0  0
  6 17  1  0  0  0  0
  8 18  1  0  0  0  0
  8 19  1  0  0  0  0
  8 20  1  0  0  0  0
M  END
> <PUBCHEM_COMPOUND_CID>
13357

> <PUBCHEM_COMPOUND_CANONICALIZED>
1

> <PUBCHEM_CACTVS_COMPLEXITY>
78.6

> <PUBCHEM_CACTVS_HBOND_ACCEPTOR>
2

> <PUBCHEM_CACTVS_HBOND_DONOR>
0

> <PUBCHEM_CACTVS_ROTATABLE_BOND>
3

> <PUBCHEM_CACTVS_SUBSKEYS>
AAADccBgMAAAAAAAAAAAAAAAAAAAAAAAAAAAAAAAAAAAAAAAAAAAGgAAAAAADQCAgAICCAAABAAIAACQCAAAAAAAAAAAAAEAAAAAABAAAAAAAAAEAAAAAAAAAAAIAAAAAAAAAAAAAAAAAAAAAAAAAAAAAA==

> <PUBCHEM_IUPAC_OPENEYE_NAME>
methyl 2-methylbutanoate

> <PUBCHEM_IUPAC_CAS_NAME>
2-methylbutanoic acid methyl ester

> <PUBCHEM_IUPAC_NAME>
methyl 2-methylbutanoate

> <PUBCHEM_IUPAC_SYSTEMATIC_NAME>
methyl 2-methylbutanoate

> <PUBCHEM_IUPAC_TRADITIONAL_NAME>
2-methylbutyric acid methyl ester

> <PUBCHEM_IUPAC_INCHI>
InChI=1S/C6H12O2/c1-4-5(2)6(7)8-3/h5H,4H2,1-3H3

> <PUBCHEM_IUPAC_INCHIKEY>
OCWLYWIFNDCWRZ-UHFFFAOYSA-N

> <PUBCHEM_XLOGP3_AA>
1.5

> <PUBCHEM_EXACT_MASS>
116.084

> <PUBCHEM_MOLECULAR_FORMULA>
C6H12O2

> <PUBCHEM_MOLECULAR_WEIGHT>
116.16

> <PUBCHEM_OPENEYE_CAN_SMILES>
CCC(C)C(=O)OC

> <PUBCHEM_OPENEYE_ISO_SMILES>
CCC(C)C(=O)OC

> <PUBCHEM_CACTVS_TPSA>
26.3

> <PUBCHEM_MONOISOTOPIC_WEIGHT>
116.084

> <PUBCHEM_TOTAL_CHARGE>
0

> <PUBCHEM_HEAVY_ATOM_COUNT>
8

> <PUBCHEM_ATOM_DEF_STEREO_COUNT>
0

> <PUBCHEM_ATOM_UDEF_STEREO_COUNT>
1

> <PUBCHEM_BOND_DEF_STEREO_COUNT>
0

> <PUBCHEM_BOND_UDEF_STEREO_COUNT>
0

> <PUBCHEM_ISOTOPIC_ATOM_COUNT>
0

> <PUBCHEM_COMPONENT_COUNT>
1

> <PUBCHEM_CACTVS_TAUTO_COUNT>
-1

> <PUBCHEM_COORDINATE_TYPE>
1 __ 5 __ 255

> <PUBCHEM_BONDANNOTATIONS>
3  9  3

$$$$
11160
 OpenBabel02201912233D

 20 19  0  0  0  0  0  0  0  0999 V2000
    0.6386    0.5965    2.2739 O   0  0  0  0  0  0  0  0  0  0  0  0
    1.2790    0.0426    0.1429 O   0  0  0  0  0  0  0  0  0  0  0  0
   -0.8460    1.1824    0.5285 C   0  0  0  0  0  0  0  0  0  0  0  0
   -2.0156    0.3831    1.1241 C   0  0  0  0  0  0  0  0  0  0  0  0
   -0.9499    1.3173   -0.9926 C   0  0  0  0  0  0  0  0  0  0  0  0
   -3.3831    0.9995    0.8604 C   0  0  0  0  0  0  0  0  0  0  0  0
    0.4741    0.5315    0.9206 C   0  0  0  0  0  0  0  0  0  0  0  0
    1.8446    0.0055    2.7603 C   0  0  0  0  0  0  0  0  0  0  0  0
   -0.8313    2.1941    0.9569 H   0  0  0  0  0  0  0  0  0  0  0  0
   -2.0007   -0.6461    0.7427 H   0  0  0  0  0  0  0  0  0  0  0  0
   -1.8818    0.2984    2.2094 H   0  0  0  0  0  0  0  0  0  0  0  0
   -1.1440    0.3481   -1.4668 H   0  0  0  0  0  0  0  0  0  0  0  0
   -1.7588    2.0005   -1.2716 H   0  0  0  0  0  0  0  0  0  0  0  0
   -0.0234    1.7165   -1.4205 H   0  0  0  0  0  0  0  0  0  0  0  0
   -4.0081    0.9241    1.7566 H   0  0  0  0  0  0  0  0  0  0  0  0
   -3.3197    2.0566    0.5868 H   0  0  0  0  0  0  0  0  0  0  0  0
   -3.8971    0.4633    0.0561 H   0  0  0  0  0  0  0  0  0  0  0  0
    1.7133   -0.1988    3.8266 H   0  0  0  0  0  0  0  0  0  0  0  0
    2.0674   -0.9423    2.2595 H   0  0  0  0  0  0  0  0  0  0  0  0
    2.6725    0.7101    2.6385 H   0  0  0  0  0  0  0  0  0  0  0  0
  1  7  1  0  0  0  0
  1  8  1  0  0  0  0
  2  7  2  0  0  0  0
  3  4  1  0  0  0  0
  3  5  1  0  0  0  0
  3  6  1  0  0  0  0
  3  9  1  0  0  0  0
  4  7  1  0  0  0  0
  4 10  1  0  0  0  0
  4 11  1  0  0  0  0
  5 12  1  0  0  0  0
  5 13  1  0  0  0  0
  5 14  1  0  0  0  0
  6 15  1  0  0  0  0
  6 16  1  0  0  0  0
  6 17  1  0  0  0  0
  8 18  1  0  0  0  0
  8 19  1  0  0  0  0
  8 20  1  0  0  0  0
M  END
> <PUBCHEM_COMPOUND_CID>
11160

> <PUBCHEM_COMPOUND_CANONICALIZED>
1

> <PUBCHEM_CACTVS_COMPLEXITY>
76.6

> <PUBCHEM_CACTVS_HBOND_ACCEPTOR>
2

> <PUBCHEM_CACTVS_HBOND_DONOR>
0

> <PUBCHEM_CACTVS_ROTATABLE_BOND>
3

> <PUBCHEM_CACTVS_SUBSKEYS>
AAADccBgMAAAAAAAAAAAAAAAAAAAAAAAAAAAAAAAAAAAAAAAAAAAGgAAAAAADQCAgAICCAAABAAIAACQCAAAAAAAAAAAAAEAAAAAABAAAAAAAAAEAAAAAAAAAAAIAAAAAAAAAAAAAAAAAAAAAAAAAAAAAA==

> <PUBCHEM_IUPAC_OPENEYE_NAME>
methyl 3-methylbutanoate

> <PUBCHEM_IUPAC_CAS_NAME>
3-methylbutanoic acid methyl ester

> <PUBCHEM_IUPAC_NAME>
methyl 3-methylbutanoate

> <PUBCHEM_IUPAC_SYSTEMATIC_NAME>
methyl 3-methylbutanoate

> <PUBCHEM_IUPAC_TRADITIONAL_NAME>
3-methylbutyric acid methyl ester

> <PUBCHEM_IUPAC_INCHI>
InChI=1S/C6H12O2/c1-5(2)4-6(7)8-3/h5H,4H2,1-3H3

> <PUBCHEM_IUPAC_INCHIKEY>
OQAGVSWESNCJJT-UHFFFAOYSA-N

> <PUBCHEM_XLOGP3>
1.8

> <PUBCHEM_EXACT_MASS>
116.084

> <PUBCHEM_MOLECULAR_FORMULA>
C6H12O2

> <PUBCHEM_MOLECULAR_WEIGHT>
116.16

> <PUBCHEM_OPENEYE_CAN_SMILES>
CC(C)CC(=O)OC

> <PUBCHEM_OPENEYE_ISO_SMILES>
CC(C)CC(=O)OC

> <PUBCHEM_CACTVS_TPSA>
26.3

> <PUBCHEM_MONOISOTOPIC_WEIGHT>
116.084

> <PUBCHEM_TOTAL_CHARGE>
0

> <PUBCHEM_HEAVY_ATOM_COUNT>
8

> <PUBCHEM_ATOM_DEF_STEREO_COUNT>
0

> <PUBCHEM_ATOM_UDEF_STEREO_COUNT>
0

> <PUBCHEM_BOND_DEF_STEREO_COUNT>
0

> <PUBCHEM_BOND_UDEF_STEREO_COUNT>
0

> <PUBCHEM_ISOTOPIC_ATOM_COUNT>
0

> <PUBCHEM_COMPONENT_COUNT>
1

> <PUBCHEM_CACTVS_TAUTO_COUNT>
-1

> <PUBCHEM_COORDINATE_TYPE>
1 __ 5 __ 255

$$$$
14090
 OpenBabel02201912233D

 16 16  0  0  0  0  0  0  0  0999 V2000
    1.1824   -0.0847   -0.2600 O   0  0  0  0  0  0  0  0  0  0  0  0
    4.0636    1.3062    1.0303 O   0  0  0  0  0  0  0  0  0  0  0  0
    3.1513   -1.3587    0.0286 C   0  0  0  0  0  0  0  0  0  0  0  0
    4.5428   -1.3763   -0.1105 C   0  0  0  0  0  0  0  0  0  0  0  0
    2.4513   -2.5723    0.1044 C   0  0  0  0  0  0  0  0  0  0  0  0
    5.2262   -2.5950   -0.1527 C   0  0  0  0  0  0  0  0  0  0  0  0
    3.1382   -3.7869    0.0671 C   0  0  0  0  0  0  0  0  0  0  0  0
    4.5256   -3.7970   -0.0598 C   0  0  0  0  0  0  0  0  0  0  0  0
    2.3639   -0.1036    0.0719 C   0  0  0  0  0  0  0  0  0  0  0  0
    2.9497    1.2063    0.5432 C   0  0  0  0  0  0  0  0  0  0  0  0
    5.1189   -0.4589   -0.1979 H   0  0  0  0  0  0  0  0  0  0  0  0
    1.3668   -2.5769    0.1997 H   0  0  0  0  0  0  0  0  0  0  0  0
    6.3088   -2.6053   -0.2580 H   0  0  0  0  0  0  0  0  0  0  0  0
    2.5902   -4.7233    0.1363 H   0  0  0  0  0  0  0  0  0  0  0  0
    5.0619   -4.7425   -0.0901 H   0  0  0  0  0  0  0  0  0  0  0  0
    2.2624    2.0606    0.4349 H   0  0  0  0  0  0  0  0  0  0  0  0
  1  9  2  0  0  0  0
  2 10  2  0  0  0  0
  3  4  2  0  0  0  0
  3  5  1  0  0  0  0
  3  9  1  0  0  0  0
  4  6  1  0  0  0  0
  4 11  1  0  0  0  0
  5  7  2  0  0  0  0
  5 12  1  0  0  0  0
  6  8  2  0  0  0  0
  6 13  1  0  0  0  0
  7  8  1  0  0  0  0
  7 14  1  0  0  0  0
  8 15  1  0  0  0  0
  9 10  1  0  0  0  0
 10 16  1  0  0  0  0
M  END
> <PUBCHEM_COMPOUND_CID>
14090

> <PUBCHEM_COMPOUND_CANONICALIZED>
1

> <PUBCHEM_CACTVS_COMPLEXITY>
134

> <PUBCHEM_CACTVS_HBOND_ACCEPTOR>
2

> <PUBCHEM_CACTVS_HBOND_DONOR>
0

> <PUBCHEM_CACTVS_ROTATABLE_BOND>
2

> <PUBCHEM_CACTVS_SUBSKEYS>
AAADcYBwMAAAAAAAAAAAAAAAAAAAAAAAAAAwAAAAAAAAAAABAAAAGgAAAAAADASgmAIwAIAAAACIAqhSgAACAAAkAAAIiAEAAMgIIDKAFRCAIQAggAAIiYcIiICOAAAAAAAAAAAAAAAAAAAAAAAAAAAAAA==

> <PUBCHEM_IUPAC_OPENEYE_NAME>
2-oxo-2-phenyl-acetaldehyde

> <PUBCHEM_IUPAC_CAS_NAME>
2-oxo-2-phenylacetaldehyde

> <PUBCHEM_IUPAC_NAME>
2-oxo-2-phenylacetaldehyde

> <PUBCHEM_IUPAC_SYSTEMATIC_NAME>
2-oxidanylidene-2-phenyl-ethanal

> <PUBCHEM_IUPAC_TRADITIONAL_NAME>
2-keto-2-phenyl-acetaldehyde

> <PUBCHEM_IUPAC_INCHI>
InChI=1S/C8H6O2/c9-6-8(10)7-4-2-1-3-5-7/h1-6H

> <PUBCHEM_IUPAC_INCHIKEY>
OJUGVDODNPJEEC-UHFFFAOYSA-N

> <PUBCHEM_XLOGP3>
1.7

> <PUBCHEM_EXACT_MASS>
134.037

> <PUBCHEM_MOLECULAR_FORMULA>
C8H6O2

> <PUBCHEM_MOLECULAR_WEIGHT>
134.134

> <PUBCHEM_OPENEYE_CAN_SMILES>
C1=CC=C(C=C1)C(=O)C=O

> <PUBCHEM_OPENEYE_ISO_SMILES>
C1=CC=C(C=C1)C(=O)C=O

> <PUBCHEM_CACTVS_TPSA>
34.1

> <PUBCHEM_MONOISOTOPIC_WEIGHT>
134.037

> <PUBCHEM_TOTAL_CHARGE>
0

> <PUBCHEM_HEAVY_ATOM_COUNT>
10

> <PUBCHEM_ATOM_DEF_STEREO_COUNT>
0

> <PUBCHEM_ATOM_UDEF_STEREO_COUNT>
0

> <PUBCHEM_BOND_DEF_STEREO_COUNT>
0

> <PUBCHEM_BOND_UDEF_STEREO_COUNT>
0

> <PUBCHEM_ISOTOPIC_ATOM_COUNT>
0

> <PUBCHEM_COMPONENT_COUNT>
1

> <PUBCHEM_CACTVS_TAUTO_COUNT>
1

> <PUBCHEM_COORDINATE_TYPE>
1 __ 5 __ 255

> <PUBCHEM_BONDANNOTATIONS>
3  4  8 __ 3  5  8 __ 4  6  8 __ 5  7  8 __ 6  8  8 __ 7  8  8

$$$$
998
 OpenBabel02201912233D

 17 17  0  0  0  0  0  0  0  0999 V2000
    2.8129   -1.4567   -3.1571 O   0  0  0  0  0  0  0  0  0  0  0  0
    3.9106    1.3223   -1.3586 C   0  0  0  0  0  0  0  0  0  0  0  0
    3.0621    0.0794   -1.3139 C   0  0  0  0  0  0  0  0  0  0  0  0
    3.3282    2.5925   -1.2470 C   0  0  0  0  0  0  0  0  0  0  0  0
    5.2949    1.2233   -1.5565 C   0  0  0  0  0  0  0  0  0  0  0  0
    4.1186    3.7403   -1.3224 C   0  0  0  0  0  0  0  0  0  0  0  0
    6.0829    2.3725   -1.6287 C   0  0  0  0  0  0  0  0  0  0  0  0
    5.4950    3.6303   -1.5122 C   0  0  0  0  0  0  0  0  0  0  0  0
    2.6164   -0.3372   -2.6910 C   0  0  0  0  0  0  0  0  0  0  0  0
    2.1689    0.2463   -0.7013 H   0  0  0  0  0  0  0  0  0  0  0  0
    3.6186   -0.7433   -0.8504 H   0  0  0  0  0  0  0  0  0  0  0  0
    2.2558    2.6997   -1.0999 H   0  0  0  0  0  0  0  0  0  0  0  0
    5.7689    0.2483   -1.6569 H   0  0  0  0  0  0  0  0  0  0  0  0
    3.6610    4.7225   -1.2343 H   0  0  0  0  0  0  0  0  0  0  0  0
    7.1561    2.2858   -1.7792 H   0  0  0  0  0  0  0  0  0  0  0  0
    6.1096    4.5247   -1.5707 H   0  0  0  0  0  0  0  0  0  0  0  0
    2.0420    0.4151   -3.2579 H   0  0  0  0  0  0  0  0  0  0  0  0
  1  9  2  0  0  0  0
  2  3  1  0  0  0  0
  2  4  2  0  0  0  0
  2  5  1  0  0  0  0
  3  9  1  0  0  0  0
  3 10  1  0  0  0  0
  3 11  1  0  0  0  0
  4  6  1  0  0  0  0
  4 12  1  0  0  0  0
  5  7  2  0  0  0  0
  5 13  1  0  0  0  0
  6  8  2  0  0  0  0
  6 14  1  0  0  0  0
  7  8  1  0  0  0  0
  7 15  1  0  0  0  0
  8 16  1  0  0  0  0
  9 17  1  0  0  0  0
M  END
> <PUBCHEM_COMPOUND_CID>
998

> <PUBCHEM_COMPOUND_CANONICALIZED>
1

> <PUBCHEM_CACTVS_COMPLEXITY>
82.6

> <PUBCHEM_CACTVS_HBOND_ACCEPTOR>
1

> <PUBCHEM_CACTVS_HBOND_DONOR>
0

> <PUBCHEM_CACTVS_ROTATABLE_BOND>
2

> <PUBCHEM_CACTVS_SUBSKEYS>
AAADccBwIAAAAAAAAAAAAAAAAAAAAAAAAAAwAAAAAAAAAAABAAAAGgAAAAAADACgmAIwAIAAAACIAihSgAACAAAgAAAIiAEAAIgIIDKAFRCAIAAggAAIiAcIiICOAAAAAAAAAAAAAAAAAAAAAAAAAAAAAA==

> <PUBCHEM_IUPAC_OPENEYE_NAME>
2-phenylacetaldehyde

> <PUBCHEM_IUPAC_CAS_NAME>
2-phenylacetaldehyde

> <PUBCHEM_IUPAC_NAME>
2-phenylacetaldehyde

> <PUBCHEM_IUPAC_SYSTEMATIC_NAME>
2-phenylethanal

> <PUBCHEM_IUPAC_TRADITIONAL_NAME>
2-phenylacetaldehyde

> <PUBCHEM_IUPAC_INCHI>
InChI=1S/C8H8O/c9-7-6-8-4-2-1-3-5-8/h1-5,7H,6H2

> <PUBCHEM_IUPAC_INCHIKEY>
DTUQWGWMVIHBKE-UHFFFAOYSA-N

> <PUBCHEM_XLOGP3>
1.8

> <PUBCHEM_EXACT_MASS>
120.058

> <PUBCHEM_MOLECULAR_FORMULA>
C8H8O

> <PUBCHEM_MOLECULAR_WEIGHT>
120.151

> <PUBCHEM_OPENEYE_CAN_SMILES>
C1=CC=C(C=C1)CC=O

> <PUBCHEM_OPENEYE_ISO_SMILES>
C1=CC=C(C=C1)CC=O

> <PUBCHEM_CACTVS_TPSA>
17.1

> <PUBCHEM_MONOISOTOPIC_WEIGHT>
120.058

> <PUBCHEM_TOTAL_CHARGE>
0

> <PUBCHEM_HEAVY_ATOM_COUNT>
9

> <PUBCHEM_ATOM_DEF_STEREO_COUNT>
0

> <PUBCHEM_ATOM_UDEF_STEREO_COUNT>
0

> <PUBCHEM_BOND_DEF_STEREO_COUNT>
0

> <PUBCHEM_BOND_UDEF_STEREO_COUNT>
0

> <PUBCHEM_ISOTOPIC_ATOM_COUNT>
0

> <PUBCHEM_COMPONENT_COUNT>
1

> <PUBCHEM_CACTVS_TAUTO_COUNT>
-1

> <PUBCHEM_COORDINATE_TYPE>
1 __ 5 __ 255

> <PUBCHEM_BONDANNOTATIONS>
2  4  8 __ 2  5  8 __ 4  6  8 __ 5  7  8 __ 6  8  8 __ 7  8  8

$$$$
6054
 OpenBabel02201912233D

 19 19  0  0  0  0  0  0  0  0999 V2000
    0.6464   -2.1156   -1.5444 O   0  0  0  0  0  0  0  0  0  0  0  0
    1.0657   -2.2468    0.8552 C   0  0  0  0  0  0  0  0  0  0  0  0
    2.5758   -2.2717    0.7634 C   0  0  0  0  0  0  0  0  0  0  0  0
    0.3992   -1.4844   -0.2915 C   0  0  0  0  0  0  0  0  0  0  0  0
    3.3227   -1.0879    0.8297 C   0  0  0  0  0  0  0  0  0  0  0  0
    3.2503   -3.4908    0.6079 C   0  0  0  0  0  0  0  0  0  0  0  0
    4.7147   -1.1234    0.7277 C   0  0  0  0  0  0  0  0  0  0  0  0
    4.6421   -3.5249    0.5103 C   0  0  0  0  0  0  0  0  0  0  0  0
    5.3735   -2.3404    0.5670 C   0  0  0  0  0  0  0  0  0  0  0  0
    0.7823   -1.7975    1.8144 H   0  0  0  0  0  0  0  0  0  0  0  0
    0.6857   -3.2760    0.8609 H   0  0  0  0  0  0  0  0  0  0  0  0
    0.7382   -0.4453   -0.3516 H   0  0  0  0  0  0  0  0  0  0  0  0
   -0.6850   -1.4725   -0.1414 H   0  0  0  0  0  0  0  0  0  0  0  0
    2.8290   -0.1279    0.9618 H   0  0  0  0  0  0  0  0  0  0  0  0
    2.6953   -4.4259    0.5596 H   0  0  0  0  0  0  0  0  0  0  0  0
    5.2866   -0.1997    0.7754 H   0  0  0  0  0  0  0  0  0  0  0  0
    5.1548   -4.4757    0.3915 H   0  0  0  0  0  0  0  0  0  0  0  0
    6.4574   -2.3668    0.4911 H   0  0  0  0  0  0  0  0  0  0  0  0
    1.6133   -2.1474   -1.6609 H   0  0  0  0  0  0  0  0  0  0  0  0
  1  4  1  0  0  0  0
  1 19  1  0  0  0  0
  2  3  1  0  0  0  0
  2  4  1  0  0  0  0
  2 10  1  0  0  0  0
  2 11  1  0  0  0  0
  3  5  2  0  0  0  0
  3  6  1  0  0  0  0
  4 12  1  0  0  0  0
  4 13  1  0  0  0  0
  5  7  1  0  0  0  0
  5 14  1  0  0  0  0
  6  8  2  0  0  0  0
  6 15  1  0  0  0  0
  7  9  2  0  0  0  0
  7 16  1  0  0  0  0
  8  9  1  0  0  0  0
  8 17  1  0  0  0  0
  9 18  1  0  0  0  0
M  END
> <PUBCHEM_COMPOUND_CID>
6054

> <PUBCHEM_COMPOUND_CANONICALIZED>
1

> <PUBCHEM_CACTVS_COMPLEXITY>
65

> <PUBCHEM_CACTVS_HBOND_ACCEPTOR>
1

> <PUBCHEM_CACTVS_HBOND_DONOR>
1

> <PUBCHEM_CACTVS_ROTATABLE_BOND>
2

> <PUBCHEM_CACTVS_SUBSKEYS>
AAADccBwIAAAAAAAAAAAAAAAAAAAAAAAAAAwAAAAAAAAAAABAAAAGgAACAAADACgmAIwAIAAAgCAAiBCAAACAAAgAAAIiAAAAIgIMCKAERCAYAAkwAEIiAeAwKAOAAAAAAAAAAAAAAAAAAAAAAAAAAAAAA==

> <PUBCHEM_IUPAC_OPENEYE_NAME>
2-phenylethanol

> <PUBCHEM_IUPAC_CAS_NAME>
2-phenylethanol

> <PUBCHEM_IUPAC_NAME>
2-phenylethanol

> <PUBCHEM_IUPAC_SYSTEMATIC_NAME>
2-phenylethanol

> <PUBCHEM_IUPAC_TRADITIONAL_NAME>
2-phenylethanol

> <PUBCHEM_IUPAC_INCHI>
InChI=1S/C8H10O/c9-7-6-8-4-2-1-3-5-8/h1-5,9H,6-7H2

> <PUBCHEM_IUPAC_INCHIKEY>
WRMNZCZEMHIOCP-UHFFFAOYSA-N

> <PUBCHEM_XLOGP3>
1.4

> <PUBCHEM_EXACT_MASS>
122.073

> <PUBCHEM_MOLECULAR_FORMULA>
C8H10O

> <PUBCHEM_MOLECULAR_WEIGHT>
122.167

> <PUBCHEM_OPENEYE_CAN_SMILES>
C1=CC=C(C=C1)CCO

> <PUBCHEM_OPENEYE_ISO_SMILES>
C1=CC=C(C=C1)CCO

> <PUBCHEM_CACTVS_TPSA>
20.2

> <PUBCHEM_MONOISOTOPIC_WEIGHT>
122.073

> <PUBCHEM_TOTAL_CHARGE>
0

> <PUBCHEM_HEAVY_ATOM_COUNT>
9

> <PUBCHEM_ATOM_DEF_STEREO_COUNT>
0

> <PUBCHEM_ATOM_UDEF_STEREO_COUNT>
0

> <PUBCHEM_BOND_DEF_STEREO_COUNT>
0

> <PUBCHEM_BOND_UDEF_STEREO_COUNT>
0

> <PUBCHEM_ISOTOPIC_ATOM_COUNT>
0

> <PUBCHEM_COMPONENT_COUNT>
1

> <PUBCHEM_CACTVS_TAUTO_COUNT>
-1

> <PUBCHEM_COORDINATE_TYPE>
1 __ 5 __ 255

> <PUBCHEM_BONDANNOTATIONS>
3  5  8 __ 3  6  8 __ 5  7  8 __ 6  8  8 __ 7  9  8 __ 8  9  8

$$$$
7711
 OpenBabel02201912233D

 21 21  0  0  0  0  0  0  0  0999 V2000
   -1.5840    2.7983   -0.8519 O   0  0  0  0  0  0  0  0  0  0  0  0
   -1.8439    1.0272   -2.2977 O   0  0  0  0  0  0  0  0  0  0  0  0
    0.7786    2.2037   -0.7294 C   0  0  0  0  0  0  0  0  0  0  0  0
    2.2023    2.5281   -1.1150 C   0  0  0  0  0  0  0  0  0  0  0  0
   -0.2809    3.0775   -1.4015 C   0  0  0  0  0  0  0  0  0  0  0  0
    2.7352    3.8092   -0.9136 C   0  0  0  0  0  0  0  0  0  0  0  0
    3.0436    1.5215   -1.6125 C   0  0  0  0  0  0  0  0  0  0  0  0
    4.0768    4.0760   -1.1978 C   0  0  0  0  0  0  0  0  0  0  0  0
    4.3868    1.7882   -1.8903 C   0  0  0  0  0  0  0  0  0  0  0  0
    4.9036    3.0635   -1.6791 C   0  0  0  0  0  0  0  0  0  0  0  0
   -2.2474    1.7558   -1.4065 C   0  0  0  0  0  0  0  0  0  0  0  0
    0.6896    2.2890    0.3610 H   0  0  0  0  0  0  0  0  0  0  0  0
    0.5614    1.1505   -0.9486 H   0  0  0  0  0  0  0  0  0  0  0  0
   -0.2805    2.9555   -2.4915 H   0  0  0  0  0  0  0  0  0  0  0  0
   -0.0944    4.1385   -1.2053 H   0  0  0  0  0  0  0  0  0  0  0  0
    2.1181    4.6100   -0.5137 H   0  0  0  0  0  0  0  0  0  0  0  0
    2.6633    0.5151   -1.7744 H   0  0  0  0  0  0  0  0  0  0  0  0
    4.4798    5.0712   -1.0296 H   0  0  0  0  0  0  0  0  0  0  0  0
    5.0311    0.9954   -2.2612 H   0  0  0  0  0  0  0  0  0  0  0  0
    5.9521    3.2670   -1.8825 H   0  0  0  0  0  0  0  0  0  0  0  0
   -3.2272    1.6552   -0.9193 H   0  0  0  0  0  0  0  0  0  0  0  0
  1  5  1  0  0  0  0
  1 11  1  0  0  0  0
  2 11  2  0  0  0  0
  3  4  1  0  0  0  0
  3  5  1  0  0  0  0
  3 12  1  0  0  0  0
  3 13  1  0  0  0  0
  4  6  2  0  0  0  0
  4  7  1  0  0  0  0
  5 14  1  0  0  0  0
  5 15  1  0  0  0  0
  6  8  1  0  0  0  0
  6 16  1  0  0  0  0
  7  9  2  0  0  0  0
  7 17  1  0  0  0  0
  8 10  2  0  0  0  0
  8 18  1  0  0  0  0
  9 10  1  0  0  0  0
  9 19  1  0  0  0  0
 10 20  1  0  0  0  0
 11 21  1  0  0  0  0
M  END
> <PUBCHEM_COMPOUND_CID>
7711

> <PUBCHEM_COMPOUND_CANONICALIZED>
1

> <PUBCHEM_CACTVS_COMPLEXITY>
106

> <PUBCHEM_CACTVS_HBOND_ACCEPTOR>
2

> <PUBCHEM_CACTVS_HBOND_DONOR>
0

> <PUBCHEM_CACTVS_ROTATABLE_BOND>
4

> <PUBCHEM_CACTVS_SUBSKEYS>
AAADccBwMAAAAAAAAAAAAAAAAAAAAAAAAAAwAAAAAAAAAAABAAAAGgAAAAAADACgmAMwCIAABACIAiBCiAACAAAgAAAIiAAAAIgIICKAERCAIAAkwAEIiAeAwKAOAAAAAAAAAAAAAAAAAAAAAAAAAAAAAA==

> <PUBCHEM_IUPAC_OPENEYE_NAME>
2-phenylethyl formate

> <PUBCHEM_IUPAC_CAS_NAME>
formic acid 2-phenylethyl ester

> <PUBCHEM_IUPAC_NAME>
2-phenylethyl formate

> <PUBCHEM_IUPAC_SYSTEMATIC_NAME>
2-phenylethyl methanoate

> <PUBCHEM_IUPAC_TRADITIONAL_NAME>
formic acid phenethyl ester

> <PUBCHEM_IUPAC_INCHI>
InChI=1S/C9H10O2/c10-8-11-7-6-9-4-2-1-3-5-9/h1-5,8H,6-7H2

> <PUBCHEM_IUPAC_INCHIKEY>
IKDIJXDZEYHZSD-UHFFFAOYSA-N

> <PUBCHEM_XLOGP3_AA>
2.1

> <PUBCHEM_EXACT_MASS>
150.068

> <PUBCHEM_MOLECULAR_FORMULA>
C9H10O2

> <PUBCHEM_MOLECULAR_WEIGHT>
150.177

> <PUBCHEM_OPENEYE_CAN_SMILES>
C1=CC=C(C=C1)CCOC=O

> <PUBCHEM_OPENEYE_ISO_SMILES>
C1=CC=C(C=C1)CCOC=O

> <PUBCHEM_CACTVS_TPSA>
26.3

> <PUBCHEM_MONOISOTOPIC_WEIGHT>
150.068

> <PUBCHEM_TOTAL_CHARGE>
0

> <PUBCHEM_HEAVY_ATOM_COUNT>
11

> <PUBCHEM_ATOM_DEF_STEREO_COUNT>
0

> <PUBCHEM_ATOM_UDEF_STEREO_COUNT>
0

> <PUBCHEM_BOND_DEF_STEREO_COUNT>
0

> <PUBCHEM_BOND_UDEF_STEREO_COUNT>
0

> <PUBCHEM_ISOTOPIC_ATOM_COUNT>
0

> <PUBCHEM_COMPONENT_COUNT>
1

> <PUBCHEM_CACTVS_TAUTO_COUNT>
-1

> <PUBCHEM_COORDINATE_TYPE>
1 __ 5 __ 255

> <PUBCHEM_BONDANNOTATIONS>
4  6  8 __ 4  7  8 __ 6  8  8 __ 7  9  8 __ 8  10  8 __ 9  10  8

$$$$
7651
 OpenBabel02201912233D

 30 30  0  0  0  0  0  0  0  0999 V2000
    0.9813    0.1479    0.2437 O   0  0  0  0  0  0  0  0  0  0  0  0
    0.9770    1.9455   -1.1946 O   0  0  0  0  0  0  0  0  0  0  0  0
   -1.7537    0.6554   -1.8020 C   0  0  0  0  0  0  0  0  0  0  0  0
   -1.1087    0.9742   -0.4485 C   0  0  0  0  0  0  0  0  0  0  0  0
   -1.2835   -0.6910   -2.3574 C   0  0  0  0  0  0  0  0  0  0  0  0
   -3.2770    0.6536   -1.6544 C   0  0  0  0  0  0  0  0  0  0  0  0
    0.3932    1.0996   -0.5314 C   0  0  0  0  0  0  0  0  0  0  0  0
    2.4144    0.1409    0.2269 C   0  0  0  0  0  0  0  0  0  0  0  0
    2.9242   -0.6196   -0.9689 C   0  0  0  0  0  0  0  0  0  0  0  0
    3.7388    0.0146   -1.9170 C   0  0  0  0  0  0  0  0  0  0  0  0
    2.5746   -1.9646   -1.1626 C   0  0  0  0  0  0  0  0  0  0  0  0
    4.1905   -0.6808   -3.0390 C   0  0  0  0  0  0  0  0  0  0  0  0
    3.0248   -2.6556   -2.2870 C   0  0  0  0  0  0  0  0  0  0  0  0
    3.8323   -2.0144   -3.2246 C   0  0  0  0  0  0  0  0  0  0  0  0
   -1.4810    1.4342   -2.5256 H   0  0  0  0  0  0  0  0  0  0  0  0
   -1.3740    0.2082    0.2903 H   0  0  0  0  0  0  0  0  0  0  0  0
   -1.4840    1.9264   -0.0540 H   0  0  0  0  0  0  0  0  0  0  0  0
   -1.4361   -1.4972   -1.6316 H   0  0  0  0  0  0  0  0  0  0  0  0
   -1.8322   -0.9491   -3.2695 H   0  0  0  0  0  0  0  0  0  0  0  0
   -0.2203   -0.6604   -2.6137 H   0  0  0  0  0  0  0  0  0  0  0  0
   -3.6343    1.6258   -1.2986 H   0  0  0  0  0  0  0  0  0  0  0  0
   -3.7634    0.4498   -2.6140 H   0  0  0  0  0  0  0  0  0  0  0  0
   -3.6051   -0.1096   -0.9401 H   0  0  0  0  0  0  0  0  0  0  0  0
    2.8122    1.1622    0.2763 H   0  0  0  0  0  0  0  0  0  0  0  0
    2.7516   -0.3649    1.1396 H   0  0  0  0  0  0  0  0  0  0  0  0
    4.0099    1.0613   -1.7956 H   0  0  0  0  0  0  0  0  0  0  0  0
    1.9356   -2.4719   -0.4434 H   0  0  0  0  0  0  0  0  0  0  0  0
    4.8139   -0.1766   -3.7729 H   0  0  0  0  0  0  0  0  0  0  0  0
    2.7404   -3.6949   -2.4355 H   0  0  0  0  0  0  0  0  0  0  0  0
    4.1771   -2.5512   -4.1039 H   0  0  0  0  0  0  0  0  0  0  0  0
  1  7  1  0  0  0  0
  1  8  1  0  0  0  0
  2  7  2  0  0  0  0
  3  4  1  0  0  0  0
  3  5  1  0  0  0  0
  3  6  1  0  0  0  0
  3 15  1  0  0  0  0
  4  7  1  0  0  0  0
  4 16  1  0  0  0  0
  4 17  1  0  0  0  0
  5 18  1  0  0  0  0
  5 19  1  0  0  0  0
  5 20  1  0  0  0  0
  6 21  1  0  0  0  0
  6 22  1  0  0  0  0
  6 23  1  0  0  0  0
  8  9  1  0  0  0  0
  8 24  1  0  0  0  0
  8 25  1  0  0  0  0
  9 10  2  0  0  0  0
  9 11  1  0  0  0  0
 10 12  1  0  0  0  0
 10 26  1  0  0  0  0
 11 13  2  0  0  0  0
 11 27  1  0  0  0  0
 12 14  2  0  0  0  0
 12 28  1  0  0  0  0
 13 14  1  0  0  0  0
 13 29  1  0  0  0  0
 14 30  1  0  0  0  0
M  END
> <PUBCHEM_COMPOUND_CID>
7651

> <PUBCHEM_COMPOUND_CANONICALIZED>
1

> <PUBCHEM_CACTVS_COMPLEXITY>
169

> <PUBCHEM_CACTVS_HBOND_ACCEPTOR>
2

> <PUBCHEM_CACTVS_HBOND_DONOR>
0

> <PUBCHEM_CACTVS_ROTATABLE_BOND>
5

> <PUBCHEM_CACTVS_SUBSKEYS>
AAADceBwMAAAAAAAAAAAAAAAAAAAAAAAAAAwAAAAAAAAAAABAAAAGgAAAAAADQCgmAIyCIAABACIAiDSCAACAAAgAAAIiAEACIgIJjKAMRiCMAAkwAEIqAeAwCAOAAAAAAAAAAAAAAAAAAAAAAAAAAAAAA==

> <PUBCHEM_IUPAC_OPENEYE_NAME>
benzyl 3-methylbutanoate

> <PUBCHEM_IUPAC_CAS_NAME>
3-methylbutanoic acid (phenylmethyl) ester

> <PUBCHEM_IUPAC_NAME>
benzyl 3-methylbutanoate

> <PUBCHEM_IUPAC_SYSTEMATIC_NAME>
(phenylmethyl) 3-methylbutanoate

> <PUBCHEM_IUPAC_TRADITIONAL_NAME>
3-methylbutyric acid benzyl ester

> <PUBCHEM_IUPAC_INCHI>
InChI=1S/C12H16O2/c1-10(2)8-12(13)14-9-11-6-4-3-5-7-11/h3-7,10H,8-9H2,1-2H3

> <PUBCHEM_IUPAC_INCHIKEY>
HVJKZICIMIWFCP-UHFFFAOYSA-N

> <PUBCHEM_XLOGP3>
3.3

> <PUBCHEM_EXACT_MASS>
192.115

> <PUBCHEM_MOLECULAR_FORMULA>
C12H16O2

> <PUBCHEM_MOLECULAR_WEIGHT>
192.258

> <PUBCHEM_OPENEYE_CAN_SMILES>
CC(C)CC(=O)OCC1=CC=CC=C1

> <PUBCHEM_OPENEYE_ISO_SMILES>
CC(C)CC(=O)OCC1=CC=CC=C1

> <PUBCHEM_CACTVS_TPSA>
26.3

> <PUBCHEM_MONOISOTOPIC_WEIGHT>
192.115

> <PUBCHEM_TOTAL_CHARGE>
0

> <PUBCHEM_HEAVY_ATOM_COUNT>
14

> <PUBCHEM_ATOM_DEF_STEREO_COUNT>
0

> <PUBCHEM_ATOM_UDEF_STEREO_COUNT>
0

> <PUBCHEM_BOND_DEF_STEREO_COUNT>
0

> <PUBCHEM_BOND_UDEF_STEREO_COUNT>
0

> <PUBCHEM_ISOTOPIC_ATOM_COUNT>
0

> <PUBCHEM_COMPONENT_COUNT>
1

> <PUBCHEM_CACTVS_TAUTO_COUNT>
-1

> <PUBCHEM_COORDINATE_TYPE>
1 __ 5 __ 255

> <PUBCHEM_BONDANNOTATIONS>
10  12  8 __ 11  13  8 __ 12  14  8 __ 13  14  8 __ 9  10  8 __ 9  11  8

$$$$
7410
 OpenBabel02201912233D

 17 17  0  0  0  0  0  0  0  0999 V2000
    0.9995    0.0305   -0.0366 O   0  0  0  0  0  0  0  0  0  0  0  0
    2.9974   -1.2105   -0.0030 C   0  0  0  0  0  0  0  0  0  0  0  0
    4.3586   -1.2061   -0.3266 C   0  0  0  0  0  0  0  0  0  0  0  0
    2.3292   -2.4302    0.1665 C   0  0  0  0  0  0  0  0  0  0  0  0
    2.2137    0.0464    0.1556 C   0  0  0  0  0  0  0  0  0  0  0  0
    5.0469   -2.4155   -0.4584 C   0  0  0  0  0  0  0  0  0  0  0  0
    3.0212   -3.6351    0.0380 C   0  0  0  0  0  0  0  0  0  0  0  0
    4.3800   -3.6267   -0.2717 C   0  0  0  0  0  0  0  0  0  0  0  0
    2.9186    1.3141    0.5606 C   0  0  0  0  0  0  0  0  0  0  0  0
    4.8973   -0.2790   -0.4986 H   0  0  0  0  0  0  0  0  0  0  0  0
    1.2672   -2.4443    0.4051 H   0  0  0  0  0  0  0  0  0  0  0  0
    6.1044   -2.4152   -0.7116 H   0  0  0  0  0  0  0  0  0  0  0  0
    2.4981   -4.5781    0.1769 H   0  0  0  0  0  0  0  0  0  0  0  0
    4.9180   -4.5662   -0.3753 H   0  0  0  0  0  0  0  0  0  0  0  0
    3.0193    1.9694   -0.3078 H   0  0  0  0  0  0  0  0  0  0  0  0
    2.3200    1.8113    1.3303 H   0  0  0  0  0  0  0  0  0  0  0  0
    3.9013    1.1216    0.9955 H   0  0  0  0  0  0  0  0  0  0  0  0
  1  5  2  0  0  0  0
  2  3  2  0  0  0  0
  2  4  1  0  0  0  0
  2  5  1  0  0  0  0
  3  6  1  0  0  0  0
  3 10  1  0  0  0  0
  4  7  2  0  0  0  0
  4 11  1  0  0  0  0
  5  9  1  0  0  0  0
  6  8  2  0  0  0  0
  6 12  1  0  0  0  0
  7  8  1  0  0  0  0
  7 13  1  0  0  0  0
  8 14  1  0  0  0  0
  9 15  1  0  0  0  0
  9 16  1  0  0  0  0
  9 17  1  0  0  0  0
M  END
> <PUBCHEM_COMPOUND_CID>
7410

> <PUBCHEM_COMPOUND_CANONICALIZED>
1

> <PUBCHEM_CACTVS_COMPLEXITY>
101

> <PUBCHEM_CACTVS_HBOND_ACCEPTOR>
1

> <PUBCHEM_CACTVS_HBOND_DONOR>
0

> <PUBCHEM_CACTVS_ROTATABLE_BOND>
1

> <PUBCHEM_CACTVS_SUBSKEYS>
AAADccBwIAAAAAAAAAAAAAAAAAAAAAAAAAAwAAAAAAAAAAABAAAAGgAAAAAADASAmAAyAIAAAACIAqBSAAACAAAkAAAIiAEAAMgIIDKAFRCAIQAggAAIiYcIiICOAAAAAAAAAAAAAAAAAAAAAAAAAAAAAA==

> <PUBCHEM_IUPAC_OPENEYE_NAME>
1-phenylethanone

> <PUBCHEM_IUPAC_CAS_NAME>
1-phenylethanone

> <PUBCHEM_IUPAC_NAME>
1-phenylethanone

> <PUBCHEM_IUPAC_SYSTEMATIC_NAME>
1-phenylethanone

> <PUBCHEM_IUPAC_TRADITIONAL_NAME>
acetophenone

> <PUBCHEM_IUPAC_INCHI>
InChI=1S/C8H8O/c1-7(9)8-5-3-2-4-6-8/h2-6H,1H3

> <PUBCHEM_IUPAC_INCHIKEY>
KWOLFJPFCHCOCG-UHFFFAOYSA-N

> <PUBCHEM_XLOGP3>
1.6

> <PUBCHEM_EXACT_MASS>
120.058

> <PUBCHEM_MOLECULAR_FORMULA>
C8H8O

> <PUBCHEM_MOLECULAR_WEIGHT>
120.151

> <PUBCHEM_OPENEYE_CAN_SMILES>
CC(=O)C1=CC=CC=C1

> <PUBCHEM_OPENEYE_ISO_SMILES>
CC(=O)C1=CC=CC=C1

> <PUBCHEM_CACTVS_TPSA>
17.1

> <PUBCHEM_MONOISOTOPIC_WEIGHT>
120.058

> <PUBCHEM_TOTAL_CHARGE>
0

> <PUBCHEM_HEAVY_ATOM_COUNT>
9

> <PUBCHEM_ATOM_DEF_STEREO_COUNT>
0

> <PUBCHEM_ATOM_UDEF_STEREO_COUNT>
0

> <PUBCHEM_BOND_DEF_STEREO_COUNT>
0

> <PUBCHEM_BOND_UDEF_STEREO_COUNT>
0

> <PUBCHEM_ISOTOPIC_ATOM_COUNT>
0

> <PUBCHEM_COMPONENT_COUNT>
1

> <PUBCHEM_CACTVS_TAUTO_COUNT>
-1

> <PUBCHEM_COORDINATE_TYPE>
1 __ 5 __ 255

> <PUBCHEM_BONDANNOTATIONS>
2  3  8 __ 2  4  8 __ 3  6  8 __ 4  7  8 __ 6  8  8 __ 7  8  8

$$$$
31244
 OpenBabel02201912233D

 18 18  0  0  0  0  0  0  0  0999 V2000
    1.0064   -0.0023   -0.0158 O   0  0  0  0  0  0  0  0  0  0  0  0
   -2.6508    0.6684    5.1460 O   0  0  0  0  0  0  0  0  0  0  0  0
    0.3135    0.4303    1.0819 C   0  0  0  0  0  0  0  0  0  0  0  0
   -1.1887    1.1061    3.3373 C   0  0  0  0  0  0  0  0  0  0  0  0
   -0.3687   -0.5605    1.7943 C   0  0  0  0  0  0  0  0  0  0  0  0
    0.2770    1.7539    1.5286 C   0  0  0  0  0  0  0  0  0  0  0  0
   -1.1281   -0.2251    2.9173 C   0  0  0  0  0  0  0  0  0  0  0  0
   -0.4774    2.0944    2.6541 C   0  0  0  0  0  0  0  0  0  0  0  0
   -2.0075    1.4883    4.5020 C   0  0  0  0  0  0  0  0  0  0  0  0
    1.1579    0.9635   -1.0524 C   0  0  0  0  0  0  0  0  0  0  0  0
   -0.3225   -1.5942    1.4623 H   0  0  0  0  0  0  0  0  0  0  0  0
    0.8362    2.5359    1.0262 H   0  0  0  0  0  0  0  0  0  0  0  0
   -1.6724   -0.9993    3.4548 H   0  0  0  0  0  0  0  0  0  0  0  0
   -0.5003    3.1295    2.9834 H   0  0  0  0  0  0  0  0  0  0  0  0
   -2.0181    2.5592    4.7662 H   0  0  0  0  0  0  0  0  0  0  0  0
    1.5604    0.4528   -1.9320 H   0  0  0  0  0  0  0  0  0  0  0  0
    0.1923    1.4007   -1.3305 H   0  0  0  0  0  0  0  0  0  0  0  0
    1.8727    1.7413   -0.7666 H   0  0  0  0  0  0  0  0  0  0  0  0
  1  3  1  0  0  0  0
  1 10  1  0  0  0  0
  2  9  2  0  0  0  0
  3  5  2  0  0  0  0
  3  6  1  0  0  0  0
  4  7  2  0  0  0  0
  4  8  1  0  0  0  0
  4  9  1  0  0  0  0
  5  7  1  0  0  0  0
  5 11  1  0  0  0  0
  6  8  2  0  0  0  0
  6 12  1  0  0  0  0
  7 13  1  0  0  0  0
  8 14  1  0  0  0  0
  9 15  1  0  0  0  0
 10 16  1  0  0  0  0
 10 17  1  0  0  0  0
 10 18  1  0  0  0  0
M  END
> <PUBCHEM_COMPOUND_CID>
31244

> <PUBCHEM_COMPOUND_CANONICALIZED>
1

> <PUBCHEM_CACTVS_COMPLEXITY>
104

> <PUBCHEM_CACTVS_HBOND_ACCEPTOR>
2

> <PUBCHEM_CACTVS_HBOND_DONOR>
0

> <PUBCHEM_CACTVS_ROTATABLE_BOND>
2

> <PUBCHEM_CACTVS_SUBSKEYS>
AAADccBwMAAAAAAAAAAAAAAAAAAAAAAAAAAwAAAAAAAAAAABAAAAGgAAAAAADASgmAIyBoAABACIAihSgAACCAAkIAAIiAEGCMgMJjKENRqAMSAkwBEIqYeIzADOIAAAAAAAAABAAAAAAAAAAAAAAAAAAA==

> <PUBCHEM_IUPAC_OPENEYE_NAME>
4-methoxybenzaldehyde

> <PUBCHEM_IUPAC_CAS_NAME>
4-methoxybenzaldehyde

> <PUBCHEM_IUPAC_NAME>
4-methoxybenzaldehyde

> <PUBCHEM_IUPAC_SYSTEMATIC_NAME>
4-methoxybenzaldehyde

> <PUBCHEM_IUPAC_TRADITIONAL_NAME>
4-methoxybenzaldehyde

> <PUBCHEM_IUPAC_INCHI>
InChI=1S/C8H8O2/c1-10-8-4-2-7(6-9)3-5-8/h2-6H,1H3

> <PUBCHEM_IUPAC_INCHIKEY>
ZRSNZINYAWTAHE-UHFFFAOYSA-N

> <PUBCHEM_XLOGP3>
1.8

> <PUBCHEM_EXACT_MASS>
136.052

> <PUBCHEM_MOLECULAR_FORMULA>
C8H8O2

> <PUBCHEM_MOLECULAR_WEIGHT>
136.15

> <PUBCHEM_OPENEYE_CAN_SMILES>
COC1=CC=C(C=C1)C=O

> <PUBCHEM_OPENEYE_ISO_SMILES>
COC1=CC=C(C=C1)C=O

> <PUBCHEM_CACTVS_TPSA>
26.3

> <PUBCHEM_MONOISOTOPIC_WEIGHT>
136.052

> <PUBCHEM_TOTAL_CHARGE>
0

> <PUBCHEM_HEAVY_ATOM_COUNT>
10

> <PUBCHEM_ATOM_DEF_STEREO_COUNT>
0

> <PUBCHEM_ATOM_UDEF_STEREO_COUNT>
0

> <PUBCHEM_BOND_DEF_STEREO_COUNT>
0

> <PUBCHEM_BOND_UDEF_STEREO_COUNT>
0

> <PUBCHEM_ISOTOPIC_ATOM_COUNT>
0

> <PUBCHEM_COMPONENT_COUNT>
1

> <PUBCHEM_CACTVS_TAUTO_COUNT>
-1

> <PUBCHEM_COORDINATE_TYPE>
1 __ 5 __ 255

> <PUBCHEM_BONDANNOTATIONS>
3  5  8 __ 3  6  8 __ 4  7  8 __ 4  8  8 __ 5  7  8 __ 6  8  8

$$$$
240
 OpenBabel02201912233D

 14 14  0  0  0  0  0  0  0  0999 V2000
    2.3939    1.2721   -0.0566 O   0  0  0  0  0  0  0  0  0  0  0  0
    2.9048   -0.7520    1.0631 C   0  0  0  0  0  0  0  0  0  0  0  0
    3.9044   -0.1826    1.8568 C   0  0  0  0  0  0  0  0  0  0  0  0
    2.5965   -2.1106    1.1783 C   0  0  0  0  0  0  0  0  0  0  0  0
    4.5988   -0.9769    2.7697 C   0  0  0  0  0  0  0  0  0  0  0  0
    3.2949   -2.9003    2.0934 C   0  0  0  0  0  0  0  0  0  0  0  0
    4.2939   -2.3338    2.8870 C   0  0  0  0  0  0  0  0  0  0  0  0
    2.1637    0.0786    0.0931 C   0  0  0  0  0  0  0  0  0  0  0  0
    4.1429    0.8751    1.7659 H   0  0  0  0  0  0  0  0  0  0  0  0
    1.8212   -2.5635    0.5662 H   0  0  0  0  0  0  0  0  0  0  0  0
    5.3771   -0.5376    3.3889 H   0  0  0  0  0  0  0  0  0  0  0  0
    3.0622   -3.9583    2.1895 H   0  0  0  0  0  0  0  0  0  0  0  0
    4.8369   -2.9509    3.5991 H   0  0  0  0  0  0  0  0  0  0  0  0
    1.3845   -0.4323   -0.4972 H   0  0  0  0  0  0  0  0  0  0  0  0
  1  8  2  0  0  0  0
  2  3  2  0  0  0  0
  2  4  1  0  0  0  0
  2  8  1  0  0  0  0
  3  5  1  0  0  0  0
  3  9  1  0  0  0  0
  4  6  2  0  0  0  0
  4 10  1  0  0  0  0
  5  7  2  0  0  0  0
  5 11  1  0  0  0  0
  6  7  1  0  0  0  0
  6 12  1  0  0  0  0
  7 13  1  0  0  0  0
  8 14  1  0  0  0  0
M  END
> <PUBCHEM_COMPOUND_CID>
240

> <PUBCHEM_COMPOUND_CANONICALIZED>
1

> <PUBCHEM_CACTVS_COMPLEXITY>
72.5

> <PUBCHEM_CACTVS_HBOND_ACCEPTOR>
1

> <PUBCHEM_CACTVS_HBOND_DONOR>
0

> <PUBCHEM_CACTVS_ROTATABLE_BOND>
1

> <PUBCHEM_CACTVS_SUBSKEYS>
AAADcYBgIAAAAAAAAAAAAAAAAAAAAAAAAAAwAAAAAAAAAAABAAAAGgAAAAAADACgmAIwAIAAAACIAihSgAACAAAkAAAIiAEAAMgIIDKAFRCAIQAggAAIiYcIiACOAAAAAAAAAAAAAAAAAAAAAAAAAAAAAA==

> <PUBCHEM_IUPAC_OPENEYE_NAME>
benzaldehyde

> <PUBCHEM_IUPAC_CAS_NAME>
benzaldehyde

> <PUBCHEM_IUPAC_NAME>
benzaldehyde

> <PUBCHEM_IUPAC_SYSTEMATIC_NAME>
benzaldehyde

> <PUBCHEM_IUPAC_TRADITIONAL_NAME>
benzaldehyde

> <PUBCHEM_IUPAC_INCHI>
InChI=1S/C7H6O/c8-6-7-4-2-1-3-5-7/h1-6H

> <PUBCHEM_IUPAC_INCHIKEY>
HUMNYLRZRPPJDN-UHFFFAOYSA-N

> <PUBCHEM_XLOGP3>
1.5

> <PUBCHEM_EXACT_MASS>
106.042

> <PUBCHEM_MOLECULAR_FORMULA>
C7H6O

> <PUBCHEM_MOLECULAR_WEIGHT>
106.124

> <PUBCHEM_OPENEYE_CAN_SMILES>
C1=CC=C(C=C1)C=O

> <PUBCHEM_OPENEYE_ISO_SMILES>
C1=CC=C(C=C1)C=O

> <PUBCHEM_CACTVS_TPSA>
17.1

> <PUBCHEM_MONOISOTOPIC_WEIGHT>
106.042

> <PUBCHEM_TOTAL_CHARGE>
0

> <PUBCHEM_HEAVY_ATOM_COUNT>
8

> <PUBCHEM_ATOM_DEF_STEREO_COUNT>
0

> <PUBCHEM_ATOM_UDEF_STEREO_COUNT>
0

> <PUBCHEM_BOND_DEF_STEREO_COUNT>
0

> <PUBCHEM_BOND_UDEF_STEREO_COUNT>
0

> <PUBCHEM_ISOTOPIC_ATOM_COUNT>
0

> <PUBCHEM_COMPONENT_COUNT>
1

> <PUBCHEM_CACTVS_TAUTO_COUNT>
-1

> <PUBCHEM_COORDINATE_TYPE>
1 __ 5 __ 255

> <PUBCHEM_BONDANNOTATIONS>
2  3  8 __ 2  4  8 __ 3  5  8 __ 4  6  8 __ 5  7  8 __ 6  7  8

$$$$
243
 OpenBabel02201912233D

 15 15  0  0  0  0  0  0  0  0999 V2000
    0.7426    1.8685    1.3849 O   0  0  0  0  0  0  0  0  0  0  0  0
    0.9390   -0.2672    0.7625 O   0  0  0  0  0  0  0  0  0  0  0  0
   -1.2552    0.7156    0.8987 C   0  0  0  0  0  0  0  0  0  0  0  0
   -1.9194   -0.4669    0.5485 C   0  0  0  0  0  0  0  0  0  0  0  0
   -1.9952    1.8786    1.1460 C   0  0  0  0  0  0  0  0  0  0  0  0
   -3.3120   -0.4856    0.4489 C   0  0  0  0  0  0  0  0  0  0  0  0
   -3.3880    1.8560    1.0444 C   0  0  0  0  0  0  0  0  0  0  0  0
   -4.0444    0.6754    0.6968 C   0  0  0  0  0  0  0  0  0  0  0  0
    0.2244    0.6902    0.9946 C   0  0  0  0  0  0  0  0  0  0  0  0
   -1.3548   -1.3766    0.3535 H   0  0  0  0  0  0  0  0  0  0  0  0
   -1.4974    2.8063    1.4174 H   0  0  0  0  0  0  0  0  0  0  0  0
   -3.8251   -1.4053    0.1782 H   0  0  0  0  0  0  0  0  0  0  0  0
   -3.9603    2.7601    1.2369 H   0  0  0  0  0  0  0  0  0  0  0  0
   -5.1290    0.6600    0.6194 H   0  0  0  0  0  0  0  0  0  0  0  0
    1.7081    1.7025    1.4098 H   0  0  0  0  0  0  0  0  0  0  0  0
  1  9  1  0  0  0  0
  1 15  1  0  0  0  0
  2  9  2  0  0  0  0
  3  4  2  0  0  0  0
  3  5  1  0  0  0  0
  3  9  1  0  0  0  0
  4  6  1  0  0  0  0
  4 10  1  0  0  0  0
  5  7  2  0  0  0  0
  5 11  1  0  0  0  0
  6  8  2  0  0  0  0
  6 12  1  0  0  0  0
  7  8  1  0  0  0  0
  7 13  1  0  0  0  0
  8 14  1  0  0  0  0
M  END
> <PUBCHEM_COMPOUND_CID>
243

> <PUBCHEM_COMPOUND_CANONICALIZED>
1

> <PUBCHEM_CACTVS_COMPLEXITY>
104

> <PUBCHEM_CACTVS_HBOND_ACCEPTOR>
2

> <PUBCHEM_CACTVS_HBOND_DONOR>
1

> <PUBCHEM_CACTVS_ROTATABLE_BOND>
1

> <PUBCHEM_CACTVS_SUBSKEYS>
AAADcYBgMAAAAAAAAAAAAAAAAAAAAAAAAAAwAAAAAAAAAAABAAAAGgAACAAADACAmAAwCIAAAgCIAiDSCAACAAAkAAAIiAEACMgIJjKAFRCAcQAkwAEImYeIyCCOAAAAAAAAAAAAAAAAAAAAAAAAAAAAAA==

> <PUBCHEM_IUPAC_OPENEYE_NAME>
benzoic acid

> <PUBCHEM_IUPAC_CAS_NAME>
benzoic acid

> <PUBCHEM_IUPAC_NAME>
benzoic acid

> <PUBCHEM_IUPAC_SYSTEMATIC_NAME>
benzoic acid

> <PUBCHEM_IUPAC_TRADITIONAL_NAME>
benzoic acid

> <PUBCHEM_IUPAC_INCHI>
InChI=1S/C7H6O2/c8-7(9)6-4-2-1-3-5-6/h1-5H,(H,8,9)

> <PUBCHEM_IUPAC_INCHIKEY>
WPYMKLBDIGXBTP-UHFFFAOYSA-N

> <PUBCHEM_XLOGP3>
1.9

> <PUBCHEM_EXACT_MASS>
122.037

> <PUBCHEM_MOLECULAR_FORMULA>
C7H6O2

> <PUBCHEM_MOLECULAR_WEIGHT>
122.123

> <PUBCHEM_OPENEYE_CAN_SMILES>
C1=CC=C(C=C1)C(=O)O

> <PUBCHEM_OPENEYE_ISO_SMILES>
C1=CC=C(C=C1)C(=O)O

> <PUBCHEM_CACTVS_TPSA>
37.3

> <PUBCHEM_MONOISOTOPIC_WEIGHT>
122.037

> <PUBCHEM_TOTAL_CHARGE>
0

> <PUBCHEM_HEAVY_ATOM_COUNT>
9

> <PUBCHEM_ATOM_DEF_STEREO_COUNT>
0

> <PUBCHEM_ATOM_UDEF_STEREO_COUNT>
0

> <PUBCHEM_BOND_DEF_STEREO_COUNT>
0

> <PUBCHEM_BOND_UDEF_STEREO_COUNT>
0

> <PUBCHEM_ISOTOPIC_ATOM_COUNT>
0

> <PUBCHEM_COMPONENT_COUNT>
1

> <PUBCHEM_CACTVS_TAUTO_COUNT>
-1

> <PUBCHEM_COORDINATE_TYPE>
1 __ 5 __ 255

> <PUBCHEM_BONDANNOTATIONS>
3  4  8 __ 3  5  8 __ 4  6  8 __ 5  7  8 __ 6  8  8 __ 7  8  8

$$$$
244
 OpenBabel02201912233D

 16 16  0  0  0  0  0  0  0  0999 V2000
   -0.2571   -0.2990    0.2595 O   0  0  0  0  0  0  0  0  0  0  0  0
    1.1771   -1.9663    1.2449 C   0  0  0  0  0  0  0  0  0  0  0  0
    0.6717   -0.5499    1.3068 C   0  0  0  0  0  0  0  0  0  0  0  0
    2.5338   -2.2368    1.0219 C   0  0  0  0  0  0  0  0  0  0  0  0
    0.2898   -3.0390    1.4145 C   0  0  0  0  0  0  0  0  0  0  0  0
    2.9933   -3.5543    0.9736 C   0  0  0  0  0  0  0  0  0  0  0  0
    0.7506   -4.3552    1.3648 C   0  0  0  0  0  0  0  0  0  0  0  0
    2.1027   -4.6124    1.1455 C   0  0  0  0  0  0  0  0  0  0  0  0
    1.4926    0.1676    1.2039 H   0  0  0  0  0  0  0  0  0  0  0  0
    0.1829   -0.3618    2.2681 H   0  0  0  0  0  0  0  0  0  0  0  0
    3.2439   -1.4236    0.8869 H   0  0  0  0  0  0  0  0  0  0  0  0
   -0.7681   -2.8483    1.5877 H   0  0  0  0  0  0  0  0  0  0  0  0
    4.0482   -3.7555    0.8036 H   0  0  0  0  0  0  0  0  0  0  0  0
    0.0549   -5.1797    1.4990 H   0  0  0  0  0  0  0  0  0  0  0  0
    2.4621   -5.6373    1.1097 H   0  0  0  0  0  0  0  0  0  0  0  0
   -0.0457   -0.9128   -0.4656 H   0  0  0  0  0  0  0  0  0  0  0  0
  1  3  1  0  0  0  0
  1 16  1  0  0  0  0
  2  3  1  0  0  0  0
  2  4  2  0  0  0  0
  2  5  1  0  0  0  0
  3  9  1  0  0  0  0
  3 10  1  0  0  0  0
  4  6  1  0  0  0  0
  4 11  1  0  0  0  0
  5  7  2  0  0  0  0
  5 12  1  0  0  0  0
  6  8  2  0  0  0  0
  6 13  1  0  0  0  0
  7  8  1  0  0  0  0
  7 14  1  0  0  0  0
  8 15  1  0  0  0  0
M  END
> <PUBCHEM_COMPOUND_CID>
244

> <PUBCHEM_COMPOUND_CANONICALIZED>
1

> <PUBCHEM_CACTVS_COMPLEXITY>
55.4

> <PUBCHEM_CACTVS_HBOND_ACCEPTOR>
1

> <PUBCHEM_CACTVS_HBOND_DONOR>
1

> <PUBCHEM_CACTVS_ROTATABLE_BOND>
1

> <PUBCHEM_CACTVS_SUBSKEYS>
AAADccBgIAAAAAAAAAAAAAAAAAAAAAAAAAAwAAAAAAAAAAABAAAAGgAACAAADACgmAIwAIAAAgCAAiBCAAACAAAgAAAIiAAACIgINiKAERCAcAAkwAEImAeAwCAOAAAAAAAAAAAAAAAAAAAAAAAAAAAAAA==

> <PUBCHEM_IUPAC_OPENEYE_NAME>
phenylmethanol

> <PUBCHEM_IUPAC_CAS_NAME>
phenylmethanol

> <PUBCHEM_IUPAC_NAME>
phenylmethanol

> <PUBCHEM_IUPAC_SYSTEMATIC_NAME>
phenylmethanol

> <PUBCHEM_IUPAC_TRADITIONAL_NAME>
phenylmethanol

> <PUBCHEM_IUPAC_INCHI>
InChI=1S/C7H8O/c8-6-7-4-2-1-3-5-7/h1-5,8H,6H2

> <PUBCHEM_IUPAC_INCHIKEY>
WVDDGKGOMKODPV-UHFFFAOYSA-N

> <PUBCHEM_XLOGP3>
1.1

> <PUBCHEM_EXACT_MASS>
108.058

> <PUBCHEM_MOLECULAR_FORMULA>
C7H8O

> <PUBCHEM_MOLECULAR_WEIGHT>
108.14

> <PUBCHEM_OPENEYE_CAN_SMILES>
C1=CC=C(C=C1)CO

> <PUBCHEM_OPENEYE_ISO_SMILES>
C1=CC=C(C=C1)CO

> <PUBCHEM_CACTVS_TPSA>
20.2

> <PUBCHEM_MONOISOTOPIC_WEIGHT>
108.058

> <PUBCHEM_TOTAL_CHARGE>
0

> <PUBCHEM_HEAVY_ATOM_COUNT>
8

> <PUBCHEM_ATOM_DEF_STEREO_COUNT>
0

> <PUBCHEM_ATOM_UDEF_STEREO_COUNT>
0

> <PUBCHEM_BOND_DEF_STEREO_COUNT>
0

> <PUBCHEM_BOND_UDEF_STEREO_COUNT>
0

> <PUBCHEM_ISOTOPIC_ATOM_COUNT>
0

> <PUBCHEM_COMPONENT_COUNT>
1

> <PUBCHEM_CACTVS_TAUTO_COUNT>
-1

> <PUBCHEM_COORDINATE_TYPE>
1 __ 5 __ 255

> <PUBCHEM_BONDANNOTATIONS>
2  4  8 __ 2  5  8 __ 4  6  8 __ 5  7  8 __ 6  8  8 __ 7  8  8

$$$$
2345
 OpenBabel02201912233D

 28 29  0  0  0  0  0  0  0  0999 V2000
    1.3183   -0.0684   -0.1004 O   0  0  0  0  0  0  0  0  0  0  0  0
    3.1570   -0.8094    1.0594 O   0  0  0  0  0  0  0  0  0  0  0  0
   -0.6001   -0.3416    1.3621 C   0  0  0  0  0  0  0  0  0  0  0  0
    0.5002   -1.0259    0.5888 C   0  0  0  0  0  0  0  0  0  0  0  0
    3.4330    0.7992   -0.6694 C   0  0  0  0  0  0  0  0  0  0  0  0
   -1.9483   -0.6021    1.0758 C   0  0  0  0  0  0  0  0  0  0  0  0
   -0.2879    0.4999    2.4396 C   0  0  0  0  0  0  0  0  0  0  0  0
    2.6394   -0.1074    0.2038 C   0  0  0  0  0  0  0  0  0  0  0  0
   -2.9605   -0.0513    1.8652 C   0  0  0  0  0  0  0  0  0  0  0  0
   -1.3012    1.0506    3.2267 C   0  0  0  0  0  0  0  0  0  0  0  0
    4.8257    0.8334   -0.4823 C   0  0  0  0  0  0  0  0  0  0  0  0
    2.8579    1.5923   -1.6699 C   0  0  0  0  0  0  0  0  0  0  0  0
   -2.6365    0.7679    2.9448 C   0  0  0  0  0  0  0  0  0  0  0  0
    5.6284    1.6420   -1.2865 C   0  0  0  0  0  0  0  0  0  0  0  0
    3.6680    2.4020   -2.4741 C   0  0  0  0  0  0  0  0  0  0  0  0
    5.0503    2.4247   -2.2832 C   0  0  0  0  0  0  0  0  0  0  0  0
    0.0732   -1.6853   -0.1751 H   0  0  0  0  0  0  0  0  0  0  0  0
    1.0588   -1.6707    1.2781 H   0  0  0  0  0  0  0  0  0  0  0  0
   -2.2213   -1.2529    0.2481 H   0  0  0  0  0  0  0  0  0  0  0  0
    0.7512    0.7101    2.6848 H   0  0  0  0  0  0  0  0  0  0  0  0
   -4.0019   -0.2731    1.6464 H   0  0  0  0  0  0  0  0  0  0  0  0
   -1.0472    1.6874    4.0700 H   0  0  0  0  0  0  0  0  0  0  0  0
    5.2899    0.2205    0.2876 H   0  0  0  0  0  0  0  0  0  0  0  0
    1.7845    1.5871   -1.8388 H   0  0  0  0  0  0  0  0  0  0  0  0
   -3.4237    1.1806    3.5704 H   0  0  0  0  0  0  0  0  0  0  0  0
    6.7064    1.6584   -1.1359 H   0  0  0  0  0  0  0  0  0  0  0  0
    3.2212    3.0131   -3.2542 H   0  0  0  0  0  0  0  0  0  0  0  0
    5.6771    3.0527   -2.9125 H   0  0  0  0  0  0  0  0  0  0  0  0
  1  4  1  0  0  0  0
  1  8  1  0  0  0  0
  2  8  2  0  0  0  0
  3  4  1  0  0  0  0
  3  6  2  0  0  0  0
  3  7  1  0  0  0  0
  4 17  1  0  0  0  0
  4 18  1  0  0  0  0
  5  8  1  0  0  0  0
  5 11  2  0  0  0  0
  5 12  1  0  0  0  0
  6  9  1  0  0  0  0
  6 19  1  0  0  0  0
  7 10  2  0  0  0  0
  7 20  1  0  0  0  0
  9 13  2  0  0  0  0
  9 21  1  0  0  0  0
 10 13  1  0  0  0  0
 10 22  1  0  0  0  0
 11 14  1  0  0  0  0
 11 23  1  0  0  0  0
 12 15  2  0  0  0  0
 12 24  1  0  0  0  0
 13 25  1  0  0  0  0
 14 16  2  0  0  0  0
 14 26  1  0  0  0  0
 15 16  1  0  0  0  0
 15 27  1  0  0  0  0
 16 28  1  0  0  0  0
M  END
> <PUBCHEM_COMPOUND_CID>
2345

> <PUBCHEM_COMPOUND_CANONICALIZED>
1

> <PUBCHEM_CACTVS_COMPLEXITY>
213

> <PUBCHEM_CACTVS_HBOND_ACCEPTOR>
2

> <PUBCHEM_CACTVS_HBOND_DONOR>
0

> <PUBCHEM_CACTVS_ROTATABLE_BOND>
4

> <PUBCHEM_CACTVS_SUBSKEYS>
AAADccBwMAAAAAAAAAAAAAAAAAAAAAAAAAAwYAAAAAAAAAABQAAAGgAAAAAADACgmAIwCIAABACIAiDSCAACAAAkAAAIiAEACMgIJjKANRiCMQAkwAEIqYeIyCCOAAAAAAAAAAAAAAAAAAAAAAAAAAAAAA==

> <PUBCHEM_IUPAC_OPENEYE_NAME>
benzyl benzoate

> <PUBCHEM_IUPAC_CAS_NAME>
benzoic acid (phenylmethyl) ester

> <PUBCHEM_IUPAC_NAME>
benzyl benzoate

> <PUBCHEM_IUPAC_SYSTEMATIC_NAME>
(phenylmethyl) benzoate

> <PUBCHEM_IUPAC_TRADITIONAL_NAME>
benzoic acid benzyl ester

> <PUBCHEM_IUPAC_INCHI>
InChI=1S/C14H12O2/c15-14(13-9-5-2-6-10-13)16-11-12-7-3-1-4-8-12/h1-10H,11H2

> <PUBCHEM_IUPAC_INCHIKEY>
SESFRYSPDFLNCH-UHFFFAOYSA-N

> <PUBCHEM_XLOGP3>
4

> <PUBCHEM_EXACT_MASS>
212.084

> <PUBCHEM_MOLECULAR_FORMULA>
C14H12O2

> <PUBCHEM_MOLECULAR_WEIGHT>
212.248

> <PUBCHEM_OPENEYE_CAN_SMILES>
C1=CC=C(C=C1)COC(=O)C2=CC=CC=C2

> <PUBCHEM_OPENEYE_ISO_SMILES>
C1=CC=C(C=C1)COC(=O)C2=CC=CC=C2

> <PUBCHEM_CACTVS_TPSA>
26.3

> <PUBCHEM_MONOISOTOPIC_WEIGHT>
212.084

> <PUBCHEM_TOTAL_CHARGE>
0

> <PUBCHEM_HEAVY_ATOM_COUNT>
16

> <PUBCHEM_ATOM_DEF_STEREO_COUNT>
0

> <PUBCHEM_ATOM_UDEF_STEREO_COUNT>
0

> <PUBCHEM_BOND_DEF_STEREO_COUNT>
0

> <PUBCHEM_BOND_UDEF_STEREO_COUNT>
0

> <PUBCHEM_ISOTOPIC_ATOM_COUNT>
0

> <PUBCHEM_COMPONENT_COUNT>
1

> <PUBCHEM_CACTVS_TAUTO_COUNT>
-1

> <PUBCHEM_COORDINATE_TYPE>
1 __ 5 __ 255

> <PUBCHEM_BONDANNOTATIONS>
10  13  8 __ 11  14  8 __ 12  15  8 __ 14  16  8 __ 15  16  8 __ 3  6  8 __ 3  7  8 __ 5  11  8 __ 5  12  8 __ 6  9  8 __ 7  10  8 __ 9  13  8

$$$$
8794
 OpenBabel02201912233D

 16 16  0  0  0  0  0  0  0  0999 V2000
    0.9838    0.1599   -0.1426 N   0  0  0  0  0  0  0  0  0  0  0  0
    4.2555   -0.4158   -1.4669 C   0  0  0  0  0  0  0  0  0  0  0  0
    3.7577   -0.0321   -0.0918 C   0  0  0  0  0  0  0  0  0  0  0  0
    4.5800    0.5730   -2.4072 C   0  0  0  0  0  0  0  0  0  0  0  0
    4.2872   -1.7632   -1.8581 C   0  0  0  0  0  0  0  0  0  0  0  0
    4.9264    0.2201   -3.7131 C   0  0  0  0  0  0  0  0  0  0  0  0
    4.6325   -2.1114   -3.1654 C   0  0  0  0  0  0  0  0  0  0  0  0
    4.9490   -1.1201   -4.0919 C   0  0  0  0  0  0  0  0  0  0  0  0
    2.2416    0.0728   -0.1195 C   0  0  0  0  0  0  0  0  0  0  0  0
    4.1896    0.9254    0.2200 H   0  0  0  0  0  0  0  0  0  0  0  0
    4.0645   -0.7816    0.6466 H   0  0  0  0  0  0  0  0  0  0  0  0
    4.5385    1.6273   -2.1413 H   0  0  0  0  0  0  0  0  0  0  0  0
    4.0147   -2.5509   -1.1588 H   0  0  0  0  0  0  0  0  0  0  0  0
    5.1597    0.9935   -4.4412 H   0  0  0  0  0  0  0  0  0  0  0  0
    4.6363   -3.1561   -3.4662 H   0  0  0  0  0  0  0  0  0  0  0  0
    5.2003   -1.3921   -5.1140 H   0  0  0  0  0  0  0  0  0  0  0  0
  1  9  3  0  0  0  0
  2  3  1  0  0  0  0
  2  4  2  0  0  0  0
  2  5  1  0  0  0  0
  3  9  1  0  0  0  0
  3 10  1  0  0  0  0
  3 11  1  0  0  0  0
  4  6  1  0  0  0  0
  4 12  1  0  0  0  0
  5  7  2  0  0  0  0
  5 13  1  0  0  0  0
  6  8  2  0  0  0  0
  6 14  1  0  0  0  0
  7  8  1  0  0  0  0
  7 15  1  0  0  0  0
  8 16  1  0  0  0  0
M  END
> <PUBCHEM_COMPOUND_CID>
8794

> <PUBCHEM_COMPOUND_CANONICALIZED>
1

> <PUBCHEM_CACTVS_COMPLEXITY>
114

> <PUBCHEM_CACTVS_HBOND_ACCEPTOR>
1

> <PUBCHEM_CACTVS_HBOND_DONOR>
0

> <PUBCHEM_CACTVS_ROTATABLE_BOND>
1

> <PUBCHEM_CACTVS_SUBSKEYS>
AAADcYByAAAAAAAAAAAAAAAAAAAAAAAAAAAwAAAAAAAAAAABAAAAHAAAAAAADACBGAAwAIAAAACQBiBCAAACAAAgAAAIiAAAAIgIoCKAERCAIAAggAAIiA8AgIAOAAAAAAAAAAAAAAAAAAAAAAAAAAAAAA==

> <PUBCHEM_IUPAC_OPENEYE_NAME>
2-phenylacetonitrile

> <PUBCHEM_IUPAC_CAS_NAME>
2-phenylacetonitrile

> <PUBCHEM_IUPAC_NAME>
2-phenylacetonitrile

> <PUBCHEM_IUPAC_SYSTEMATIC_NAME>
2-phenylethanenitrile

> <PUBCHEM_IUPAC_TRADITIONAL_NAME>
2-phenylacetonitrile

> <PUBCHEM_IUPAC_INCHI>
InChI=1S/C8H7N/c9-7-6-8-4-2-1-3-5-8/h1-5H,6H2

> <PUBCHEM_IUPAC_INCHIKEY>
SUSQOBVLVYHIEX-UHFFFAOYSA-N

> <PUBCHEM_XLOGP3>
1.6

> <PUBCHEM_EXACT_MASS>
117.058

> <PUBCHEM_MOLECULAR_FORMULA>
C8H7N

> <PUBCHEM_MOLECULAR_WEIGHT>
117.151

> <PUBCHEM_OPENEYE_CAN_SMILES>
C1=CC=C(C=C1)CC#N

> <PUBCHEM_OPENEYE_ISO_SMILES>
C1=CC=C(C=C1)CC#N

> <PUBCHEM_CACTVS_TPSA>
23.8

> <PUBCHEM_MONOISOTOPIC_WEIGHT>
117.058

> <PUBCHEM_TOTAL_CHARGE>
0

> <PUBCHEM_HEAVY_ATOM_COUNT>
9

> <PUBCHEM_ATOM_DEF_STEREO_COUNT>
0

> <PUBCHEM_ATOM_UDEF_STEREO_COUNT>
1

> <PUBCHEM_BOND_DEF_STEREO_COUNT>
0

> <PUBCHEM_BOND_UDEF_STEREO_COUNT>
0

> <PUBCHEM_ISOTOPIC_ATOM_COUNT>
0

> <PUBCHEM_COMPONENT_COUNT>
1

> <PUBCHEM_CACTVS_TAUTO_COUNT>
-1

> <PUBCHEM_COORDINATE_TYPE>
1 __ 5 __ 255

> <PUBCHEM_BONDANNOTATIONS>
2  4  8 __ 2  5  8 __ 3  10  3 __ 4  6  8 __ 5  7  8 __ 6  8  8 __ 7  8  8

$$$$
7708
 OpenBabel02201912233D

 18 18  0  0  0  0  0  0  0  0999 V2000
    0.2830    0.1769   -2.2460 O   0  0  0  0  0  0  0  0  0  0  0  0
   -1.9611    0.7103   -2.2994 O   0  0  0  0  0  0  0  0  0  0  0  0
    0.6847    2.2157   -1.0163 C   0  0  0  0  0  0  0  0  0  0  0  0
    0.3889    0.7400   -0.9324 C   0  0  0  0  0  0  0  0  0  0  0  0
   -0.2084    3.1517   -0.4767 C   0  0  0  0  0  0  0  0  0  0  0  0
    1.8494    2.6734   -1.6476 C   0  0  0  0  0  0  0  0  0  0  0  0
    0.0612    4.5178   -0.5638 C   0  0  0  0  0  0  0  0  0  0  0  0
    2.1158    4.0400   -1.7371 C   0  0  0  0  0  0  0  0  0  0  0  0
    1.2225    4.9618   -1.1935 C   0  0  0  0  0  0  0  0  0  0  0  0
   -0.9490    0.2536   -2.8053 C   0  0  0  0  0  0  0  0  0  0  0  0
   -0.5056    0.5272   -0.3334 H   0  0  0  0  0  0  0  0  0  0  0  0
    1.2219    0.2389   -0.4250 H   0  0  0  0  0  0  0  0  0  0  0  0
   -1.1279    2.8217    0.0032 H   0  0  0  0  0  0  0  0  0  0  0  0
    2.5506    1.9638   -2.0825 H   0  0  0  0  0  0  0  0  0  0  0  0
   -0.6401    5.2358   -0.1463 H   0  0  0  0  0  0  0  0  0  0  0  0
    3.0172    4.3868   -2.2351 H   0  0  0  0  0  0  0  0  0  0  0  0
    1.4278    6.0263   -1.2656 H   0  0  0  0  0  0  0  0  0  0  0  0
   -0.9065   -0.1808   -3.8157 H   0  0  0  0  0  0  0  0  0  0  0  0
  1  4  1  0  0  0  0
  1 10  1  0  0  0  0
  2 10  2  0  0  0  0
  3  4  1  0  0  0  0
  3  5  2  0  0  0  0
  3  6  1  0  0  0  0
  4 11  1  0  0  0  0
  4 12  1  0  0  0  0
  5  7  1  0  0  0  0
  5 13  1  0  0  0  0
  6  8  2  0  0  0  0
  6 14  1  0  0  0  0
  7  9  2  0  0  0  0
  7 15  1  0  0  0  0
  8  9  1  0  0  0  0
  8 16  1  0  0  0  0
  9 17  1  0  0  0  0
 10 18  1  0  0  0  0
M  END
> <PUBCHEM_COMPOUND_CID>
7708

> <PUBCHEM_COMPOUND_CANONICALIZED>
1

> <PUBCHEM_CACTVS_COMPLEXITY>
95.4

> <PUBCHEM_CACTVS_HBOND_ACCEPTOR>
2

> <PUBCHEM_CACTVS_HBOND_DONOR>
0

> <PUBCHEM_CACTVS_ROTATABLE_BOND>
3

> <PUBCHEM_CACTVS_SUBSKEYS>
AAADccBwMAAAAAAAAAAAAAAAAAAAAAAAAAAwAAAAAAAAAAABAAAAGgAAAAAADACgmAMwCIAABACIAiBCiAACAAAgAAAIiAAACIgIJiKAMRiAMAAkwAEIqAeAwCAOAAAAAAAAAAAAAAAAAAAAAAAAAAAAAA==

> <PUBCHEM_IUPAC_OPENEYE_NAME>
benzyl formate

> <PUBCHEM_IUPAC_CAS_NAME>
formic acid (phenylmethyl) ester

> <PUBCHEM_IUPAC_NAME>
benzyl formate

> <PUBCHEM_IUPAC_SYSTEMATIC_NAME>
(phenylmethyl) methanoate

> <PUBCHEM_IUPAC_TRADITIONAL_NAME>
formic acid benzyl ester

> <PUBCHEM_IUPAC_INCHI>
InChI=1S/C8H8O2/c9-7-10-6-8-4-2-1-3-5-8/h1-5,7H,6H2

> <PUBCHEM_IUPAC_INCHIKEY>
UYWQUFXKFGHYNT-UHFFFAOYSA-N

> <PUBCHEM_XLOGP3_AA>
1.6

> <PUBCHEM_EXACT_MASS>
136.052

> <PUBCHEM_MOLECULAR_FORMULA>
C8H8O2

> <PUBCHEM_MOLECULAR_WEIGHT>
136.15

> <PUBCHEM_OPENEYE_CAN_SMILES>
C1=CC=C(C=C1)COC=O

> <PUBCHEM_OPENEYE_ISO_SMILES>
C1=CC=C(C=C1)COC=O

> <PUBCHEM_CACTVS_TPSA>
26.3

> <PUBCHEM_MONOISOTOPIC_WEIGHT>
136.052

> <PUBCHEM_TOTAL_CHARGE>
0

> <PUBCHEM_HEAVY_ATOM_COUNT>
10

> <PUBCHEM_ATOM_DEF_STEREO_COUNT>
0

> <PUBCHEM_ATOM_UDEF_STEREO_COUNT>
0

> <PUBCHEM_BOND_DEF_STEREO_COUNT>
0

> <PUBCHEM_BOND_UDEF_STEREO_COUNT>
0

> <PUBCHEM_ISOTOPIC_ATOM_COUNT>
0

> <PUBCHEM_COMPONENT_COUNT>
1

> <PUBCHEM_CACTVS_TAUTO_COUNT>
-1

> <PUBCHEM_COORDINATE_TYPE>
1 __ 5 __ 255

> <PUBCHEM_BONDANNOTATIONS>
3  5  8 __ 3  6  8 __ 5  7  8 __ 6  8  8 __ 7  9  8 __ 8  9  8

$$$$
10869
 OpenBabel02201912233D

 19 19  0  0  0  0  0  0  0  0999 V2000
    1.1339    1.5765   -1.5308 O   0  0  0  0  0  0  0  0  0  0  0  0
    1.0136    2.3543    0.7734 C   0  0  0  0  0  0  0  0  0  0  0  0
    0.6886    1.2581   -0.2100 C   0  0  0  0  0  0  0  0  0  0  0  0
    0.5770    3.6658    0.5387 C   0  0  0  0  0  0  0  0  0  0  0  0
    1.7823    2.0868    1.9148 C   0  0  0  0  0  0  0  0  0  0  0  0
    0.9198    4.6934    1.4163 C   0  0  0  0  0  0  0  0  0  0  0  0
    2.1243    3.1158    2.7917 C   0  0  0  0  0  0  0  0  0  0  0  0
    1.6994    4.4195    2.5399 C   0  0  0  0  0  0  0  0  0  0  0  0
    2.5521    1.5692   -1.6509 C   0  0  0  0  0  0  0  0  0  0  0  0
   -0.4002    1.1341   -0.2488 H   0  0  0  0  0  0  0  0  0  0  0  0
    1.1072    0.2922    0.0970 H   0  0  0  0  0  0  0  0  0  0  0  0
   -0.0155    3.8893   -0.3469 H   0  0  0  0  0  0  0  0  0  0  0  0
    2.1320    1.0770    2.1196 H   0  0  0  0  0  0  0  0  0  0  0  0
    0.5907    5.7091    1.2166 H   0  0  0  0  0  0  0  0  0  0  0  0
    2.7338    2.9035    3.6662 H   0  0  0  0  0  0  0  0  0  0  0  0
    1.9779    5.2226    3.2159 H   0  0  0  0  0  0  0  0  0  0  0  0
    2.8064    1.7357   -2.7009 H   0  0  0  0  0  0  0  0  0  0  0  0
    3.0004    2.3766   -1.0638 H   0  0  0  0  0  0  0  0  0  0  0  0
    2.9636    0.6042   -1.3400 H   0  0  0  0  0  0  0  0  0  0  0  0
  1  3  1  0  0  0  0
  1  9  1  0  0  0  0
  2  3  1  0  0  0  0
  2  4  2  0  0  0  0
  2  5  1  0  0  0  0
  3 10  1  0  0  0  0
  3 11  1  0  0  0  0
  4  6  1  0  0  0  0
  4 12  1  0  0  0  0
  5  7  2  0  0  0  0
  5 13  1  0  0  0  0
  6  8  2  0  0  0  0
  6 14  1  0  0  0  0
  7  8  1  0  0  0  0
  7 15  1  0  0  0  0
  8 16  1  0  0  0  0
  9 17  1  0  0  0  0
  9 18  1  0  0  0  0
  9 19  1  0  0  0  0
M  END
> <PUBCHEM_COMPOUND_CID>
10869

> <PUBCHEM_COMPOUND_CANONICALIZED>
1

> <PUBCHEM_CACTVS_COMPLEXITY>
65

> <PUBCHEM_CACTVS_HBOND_ACCEPTOR>
1

> <PUBCHEM_CACTVS_HBOND_DONOR>
0

> <PUBCHEM_CACTVS_ROTATABLE_BOND>
2

> <PUBCHEM_CACTVS_SUBSKEYS>
AAADccBwIAAAAAAAAAAAAAAAAAAAAAAAAAAwAAAAAAAAAAABAAAAGgAAAAAADACgmAIyAIAABACAAiBCAAACAAAgAAAIiAAACIgIJiKAMRiAMAAkwAEIqAeAwCAOAAAAAAAAAAAAAAAAAAAAAAAAAAAAAA==

> <PUBCHEM_IUPAC_OPENEYE_NAME>
methoxymethylbenzene

> <PUBCHEM_IUPAC_CAS_NAME>
methoxymethylbenzene

> <PUBCHEM_IUPAC_NAME>
methoxymethylbenzene

> <PUBCHEM_IUPAC_SYSTEMATIC_NAME>
methoxymethylbenzene

> <PUBCHEM_IUPAC_TRADITIONAL_NAME>
methoxymethylbenzene

> <PUBCHEM_IUPAC_INCHI>
InChI=1S/C8H10O/c1-9-7-8-5-3-2-4-6-8/h2-6H,7H2,1H3

> <PUBCHEM_IUPAC_INCHIKEY>
GQKZBCPTCWJTAS-UHFFFAOYSA-N

> <PUBCHEM_XLOGP3>
1.9

> <PUBCHEM_EXACT_MASS>
122.073

> <PUBCHEM_MOLECULAR_FORMULA>
C8H10O

> <PUBCHEM_MOLECULAR_WEIGHT>
122.167

> <PUBCHEM_OPENEYE_CAN_SMILES>
COCC1=CC=CC=C1

> <PUBCHEM_OPENEYE_ISO_SMILES>
COCC1=CC=CC=C1

> <PUBCHEM_CACTVS_TPSA>
9.2

> <PUBCHEM_MONOISOTOPIC_WEIGHT>
122.073

> <PUBCHEM_TOTAL_CHARGE>
0

> <PUBCHEM_HEAVY_ATOM_COUNT>
9

> <PUBCHEM_ATOM_DEF_STEREO_COUNT>
0

> <PUBCHEM_ATOM_UDEF_STEREO_COUNT>
0

> <PUBCHEM_BOND_DEF_STEREO_COUNT>
0

> <PUBCHEM_BOND_UDEF_STEREO_COUNT>
0

> <PUBCHEM_ISOTOPIC_ATOM_COUNT>
0

> <PUBCHEM_COMPONENT_COUNT>
1

> <PUBCHEM_CACTVS_TAUTO_COUNT>
-1

> <PUBCHEM_COORDINATE_TYPE>
1 __ 5 __ 255

> <PUBCHEM_BONDANNOTATIONS>
2  4  8 __ 2  5  8 __ 4  6  8 __ 5  7  8 __ 6  8  8 __ 7  8  8

$$$$
250096
 OpenBabel02201912233D

 28 28  0  0  0  0  0  0  0  0999 V2000
    1.1244    0.1666    0.2464 O   0  0  0  0  0  0  0  0  0  0  0  0
    2.9848   -0.8637    1.1050 O   0  0  0  0  0  0  0  0  0  0  0  0
   -0.8407   -0.2659    1.5636 C   0  0  0  0  0  0  0  0  0  0  0  0
    0.2775   -0.8741    0.7520 C   0  0  0  0  0  0  0  0  0  0  0  0
   -2.1801   -0.3828    1.1615 C   0  0  0  0  0  0  0  0  0  0  0  0
   -0.5523    0.3974    2.7652 C   0  0  0  0  0  0  0  0  0  0  0  0
    3.2291    1.1510   -0.1714 C   0  0  0  0  0  0  0  0  0  0  0  0
    2.4556    0.0355    0.4695 C   0  0  0  0  0  0  0  0  0  0  0  0
   -3.2057    0.1448    1.9504 C   0  0  0  0  0  0  0  0  0  0  0  0
   -1.5786    0.9244    3.5513 C   0  0  0  0  0  0  0  0  0  0  0  0
   -2.9052    0.7945    3.1462 C   0  0  0  0  0  0  0  0  0  0  0  0
    4.7006    1.1955    0.1323 C   0  0  0  0  0  0  0  0  0  0  0  0
    2.6253    2.0518   -0.9752 C   0  0  0  0  0  0  0  0  0  0  0  0
    3.2888    3.1819   -1.6977 C   0  0  0  0  0  0  0  0  0  0  0  0
   -0.1297   -1.4060   -0.1159 H   0  0  0  0  0  0  0  0  0  0  0  0
    0.8048   -1.6126    1.3666 H   0  0  0  0  0  0  0  0  0  0  0  0
   -2.4368   -0.8910    0.2351 H   0  0  0  0  0  0  0  0  0  0  0  0
    0.4787    0.4983    3.0976 H   0  0  0  0  0  0  0  0  0  0  0  0
   -4.2418    0.0433    1.6359 H   0  0  0  0  0  0  0  0  0  0  0  0
   -1.3416    1.4297    4.4840 H   0  0  0  0  0  0  0  0  0  0  0  0
   -3.7039    1.1969    3.7641 H   0  0  0  0  0  0  0  0  0  0  0  0
    5.2793    0.8888   -0.7457 H   0  0  0  0  0  0  0  0  0  0  0  0
    5.0076    2.2087    0.4157 H   0  0  0  0  0  0  0  0  0  0  0  0
    4.9852    0.5444    0.9639 H   0  0  0  0  0  0  0  0  0  0  0  0
    1.5545    1.9831   -1.1597 H   0  0  0  0  0  0  0  0  0  0  0  0
    3.0104    3.1531   -2.7560 H   0  0  0  0  0  0  0  0  0  0  0  0
    2.9531    4.1361   -1.2810 H   0  0  0  0  0  0  0  0  0  0  0  0
    4.3802    3.1478   -1.6459 H   0  0  0  0  0  0  0  0  0  0  0  0
  1  4  1  0  0  0  0
  1  8  1  0  0  0  0
  2  8  2  0  0  0  0
  3  4  1  0  0  0  0
  3  5  2  0  0  0  0
  3  6  1  0  0  0  0
  4 15  1  0  0  0  0
  4 16  1  0  0  0  0
  5  9  1  0  0  0  0
  5 17  1  0  0  0  0
  6 10  2  0  0  0  0
  6 18  1  0  0  0  0
  7  8  1  0  0  0  0
  7 12  1  0  0  0  0
  7 13  2  0  0  0  0
  9 11  2  0  0  0  0
  9 19  1  0  0  0  0
 10 11  1  0  0  0  0
 10 20  1  0  0  0  0
 11 21  1  0  0  0  0
 12 22  1  0  0  0  0
 12 23  1  0  0  0  0
 12 24  1  0  0  0  0
 13 14  1  0  0  0  0
 13 25  1  0  0  0  0
 14 26  1  0  0  0  0
 14 27  1  0  0  0  0
 14 28  1  0  0  0  0
M  END
> <PUBCHEM_COMPOUND_CID>
250096

> <PUBCHEM_COMPOUND_CANONICALIZED>
1

> <PUBCHEM_CACTVS_COMPLEXITY>
212

> <PUBCHEM_CACTVS_HBOND_ACCEPTOR>
2

> <PUBCHEM_CACTVS_HBOND_DONOR>
0

> <PUBCHEM_CACTVS_ROTATABLE_BOND>
4

> <PUBCHEM_CACTVS_SUBSKEYS>
AAADccBwMAAAAAAAAAAAAAAAAAAAAAAAAAAwAAAAAAAAAAABAAAAGgAAAAAADACgmAIyCIAABACIAiDSCAACAAAgAAAIiAEACMgIJiKAMRiCMAAkwAEIqYeAwCAOAAAAAAAAAAAAAAAAAAAAAAAAAAAAAA==

> <PUBCHEM_IUPAC_OPENEYE_NAME>
benzyl (~{E})-2-methylbut-2-enoate

> <PUBCHEM_IUPAC_CAS_NAME>
(~{E})-2-methyl-2-butenoic acid (phenylmethyl) ester

> <PUBCHEM_IUPAC_NAME>
benzyl (~{E})-2-methylbut-2-enoate

> <PUBCHEM_IUPAC_SYSTEMATIC_NAME>
(phenylmethyl) (~{E})-2-methylbut-2-enoate

> <PUBCHEM_IUPAC_TRADITIONAL_NAME>
(~{E})-2-methylbut-2-enoic acid benzyl ester

> <PUBCHEM_IUPAC_INCHI>
InChI=1S/C12H14O2/c1-3-10(2)12(13)14-9-11-7-5-4-6-8-11/h3-8H,9H2,1-2H3/b10-3+

> <PUBCHEM_IUPAC_INCHIKEY>
QRGSTISKDZCDHV-XCVCLJGOSA-N

> <PUBCHEM_XLOGP3_AA>
2.8

> <PUBCHEM_EXACT_MASS>
190.099

> <PUBCHEM_MOLECULAR_FORMULA>
C12H14O2

> <PUBCHEM_MOLECULAR_WEIGHT>
190.242

> <PUBCHEM_OPENEYE_CAN_SMILES>
CC=C(C)C(=O)OCC1=CC=CC=C1

> <PUBCHEM_OPENEYE_ISO_SMILES>
C/C=C(\C)/C(=O)OCC1=CC=CC=C1

> <PUBCHEM_CACTVS_TPSA>
26.3

> <PUBCHEM_MONOISOTOPIC_WEIGHT>
190.099

> <PUBCHEM_TOTAL_CHARGE>
0

> <PUBCHEM_HEAVY_ATOM_COUNT>
14

> <PUBCHEM_ATOM_DEF_STEREO_COUNT>
0

> <PUBCHEM_ATOM_UDEF_STEREO_COUNT>
0

> <PUBCHEM_BOND_DEF_STEREO_COUNT>
1

> <PUBCHEM_BOND_UDEF_STEREO_COUNT>
0

> <PUBCHEM_ISOTOPIC_ATOM_COUNT>
0

> <PUBCHEM_COMPONENT_COUNT>
1

> <PUBCHEM_CACTVS_TAUTO_COUNT>
-1

> <PUBCHEM_COORDINATE_TYPE>
1 __ 5 __ 255

> <PUBCHEM_BONDANNOTATIONS>
10  11  8 __ 3  5  8 __ 3  6  8 __ 5  9  8 __ 6  10  8 __ 9  11  8

$$$$
637511
 OpenBabel02201912233D

 18 18  0  0  0  0  0  0  0  0999 V2000
    1.0614    0.2919    0.0018 O   0  0  0  0  0  0  0  0  0  0  0  0
    5.0419   -0.2639   -2.5907 C   0  0  0  0  0  0  0  0  0  0  0  0
    5.4806    0.8533   -3.3088 C   0  0  0  0  0  0  0  0  0  0  0  0
    5.2406   -1.5452   -3.1158 C   0  0  0  0  0  0  0  0  0  0  0  0
    6.1058    0.6899   -4.5461 C   0  0  0  0  0  0  0  0  0  0  0  0
    5.8666   -1.7059   -4.3532 C   0  0  0  0  0  0  0  0  0  0  0  0
    4.3362   -0.0887   -1.3220 C   0  0  0  0  0  0  0  0  0  0  0  0
    6.2952   -0.5887   -5.0691 C   0  0  0  0  0  0  0  0  0  0  0  0
    3.0014    0.0135   -1.3056 C   0  0  0  0  0  0  0  0  0  0  0  0
    2.2821    0.1947   -0.0324 C   0  0  0  0  0  0  0  0  0  0  0  0
    5.3294    1.8564   -2.9168 H   0  0  0  0  0  0  0  0  0  0  0  0
    4.9019   -2.4240   -2.5722 H   0  0  0  0  0  0  0  0  0  0  0  0
    4.9489   -0.0447   -0.4271 H   0  0  0  0  0  0  0  0  0  0  0  0
    6.4374    1.5608   -5.1058 H   0  0  0  0  0  0  0  0  0  0  0  0
    6.0123   -2.7023   -4.7625 H   0  0  0  0  0  0  0  0  0  0  0  0
    6.7733   -0.7143   -6.0373 H   0  0  0  0  0  0  0  0  0  0  0  0
    2.3910   -0.0281   -2.2014 H   0  0  0  0  0  0  0  0  0  0  0  0
    2.9004    0.2371    0.8792 H   0  0  0  0  0  0  0  0  0  0  0  0
  1 10  2  0  0  0  0
  2  3  2  0  0  0  0
  2  4  1  0  0  0  0
  2  7  1  0  0  0  0
  3  5  1  0  0  0  0
  3 11  1  0  0  0  0
  4  6  2  0  0  0  0
  4 12  1  0  0  0  0
  5  8  2  0  0  0  0
  5 14  1  0  0  0  0
  6  8  1  0  0  0  0
  6 15  1  0  0  0  0
  7  9  2  0  0  0  0
  7 13  1  0  0  0  0
  8 16  1  0  0  0  0
  9 10  1  0  0  0  0
  9 17  1  0  0  0  0
 10 18  1  0  0  0  0
M  END
> <PUBCHEM_COMPOUND_CID>
637511

> <PUBCHEM_COMPOUND_CANONICALIZED>
1

> <PUBCHEM_CACTVS_COMPLEXITY>
121

> <PUBCHEM_CACTVS_HBOND_ACCEPTOR>
1

> <PUBCHEM_CACTVS_HBOND_DONOR>
0

> <PUBCHEM_CACTVS_ROTATABLE_BOND>
2

> <PUBCHEM_CACTVS_SUBSKEYS>
AAADccBwIAAAAAAAAAAAAAAAAAAAAAAAAAAwAAAAAAAAAAABAAAAGgAAAAAADACgmAIwAIAAAACIAihSgAACAAAgAAAIiAAAAMgIICKAERCAIAAggAAIiYcAgAAOAAAAAAAAAAAAAAAAAAAAAAAAAAAAAA==

> <PUBCHEM_IUPAC_OPENEYE_NAME>
(~{E})-3-phenylprop-2-enal

> <PUBCHEM_IUPAC_CAS_NAME>
(~{E})-3-phenyl-2-propenal

> <PUBCHEM_IUPAC_NAME>
(~{E})-3-phenylprop-2-enal

> <PUBCHEM_IUPAC_SYSTEMATIC_NAME>
(~{E})-3-phenylprop-2-enal

> <PUBCHEM_IUPAC_TRADITIONAL_NAME>
(~{E})-3-phenylacrolein

> <PUBCHEM_IUPAC_INCHI>
InChI=1S/C9H8O/c10-8-4-7-9-5-2-1-3-6-9/h1-8H/b7-4+

> <PUBCHEM_IUPAC_INCHIKEY>
KJPRLNWUNMBNBZ-QPJJXVBHSA-N

> <PUBCHEM_XLOGP3>
1.9

> <PUBCHEM_EXACT_MASS>
132.058

> <PUBCHEM_MOLECULAR_FORMULA>
C9H8O

> <PUBCHEM_MOLECULAR_WEIGHT>
132.162

> <PUBCHEM_OPENEYE_CAN_SMILES>
C1=CC=C(C=C1)C=CC=O

> <PUBCHEM_OPENEYE_ISO_SMILES>
C1=CC=C(C=C1)/C=C/C=O

> <PUBCHEM_CACTVS_TPSA>
17.1

> <PUBCHEM_MONOISOTOPIC_WEIGHT>
132.058

> <PUBCHEM_TOTAL_CHARGE>
0

> <PUBCHEM_HEAVY_ATOM_COUNT>
10

> <PUBCHEM_ATOM_DEF_STEREO_COUNT>
0

> <PUBCHEM_ATOM_UDEF_STEREO_COUNT>
0

> <PUBCHEM_BOND_DEF_STEREO_COUNT>
1

> <PUBCHEM_BOND_UDEF_STEREO_COUNT>
0

> <PUBCHEM_ISOTOPIC_ATOM_COUNT>
0

> <PUBCHEM_COMPONENT_COUNT>
1

> <PUBCHEM_CACTVS_TAUTO_COUNT>
-1

> <PUBCHEM_COORDINATE_TYPE>
1 __ 5 __ 255

> <PUBCHEM_BONDANNOTATIONS>
2  3  8 __ 2  4  8 __ 3  5  8 __ 4  6  8 __ 5  8  8 __ 6  8  8

$$$$
5315892
 OpenBabel02201912233D

 20 20  0  0  0  0  0  0  0  0999 V2000
    2.9355    1.1539   -2.3229 O   0  0  0  0  0  0  0  0  0  0  0  0
    2.2391    4.5304    0.8518 C   0  0  0  0  0  0  0  0  0  0  0  0
    1.7860    3.4147    0.0069 C   0  0  0  0  0  0  0  0  0  0  0  0
    1.6921    5.8051    0.6521 C   0  0  0  0  0  0  0  0  0  0  0  0
    3.1606    4.3523    1.8929 C   0  0  0  0  0  0  0  0  0  0  0  0
    2.0841    6.8826    1.4523 C   0  0  0  0  0  0  0  0  0  0  0  0
    3.5545    5.4294    2.6908 C   0  0  0  0  0  0  0  0  0  0  0  0
    2.5579    2.3690   -0.3338 C   0  0  0  0  0  0  0  0  0  0  0  0
    3.0187    6.6950    2.4681 C   0  0  0  0  0  0  0  0  0  0  0  0
    2.1031    1.2257   -1.1771 C   0  0  0  0  0  0  0  0  0  0  0  0
    0.7621    3.4792   -0.3550 H   0  0  0  0  0  0  0  0  0  0  0  0
    0.9609    5.9756   -0.1346 H   0  0  0  0  0  0  0  0  0  0  0  0
    3.5801    3.3715    2.1015 H   0  0  0  0  0  0  0  0  0  0  0  0
    1.6589    7.8684    1.2819 H   0  0  0  0  0  0  0  0  0  0  0  0
    4.2764    5.2757    3.4883 H   0  0  0  0  0  0  0  0  0  0  0  0
    3.5893    2.3081    0.0044 H   0  0  0  0  0  0  0  0  0  0  0  0
    3.3257    7.5324    3.0892 H   0  0  0  0  0  0  0  0  0  0  0  0
    1.0639    1.3278   -1.5041 H   0  0  0  0  0  0  0  0  0  0  0  0
    2.1998    0.2883   -0.6212 H   0  0  0  0  0  0  0  0  0  0  0  0
    2.9172    2.0328   -2.7389 H   0  0  0  0  0  0  0  0  0  0  0  0
  1 10  1  0  0  0  0
  1 20  1  0  0  0  0
  2  3  1  0  0  0  0
  2  4  2  0  0  0  0
  2  5  1  0  0  0  0
  3  8  2  0  0  0  0
  3 11  1  0  0  0  0
  4  6  1  0  0  0  0
  4 12  1  0  0  0  0
  5  7  2  0  0  0  0
  5 13  1  0  0  0  0
  6  9  2  0  0  0  0
  6 14  1  0  0  0  0
  7  9  1  0  0  0  0
  7 15  1  0  0  0  0
  8 10  1  0  0  0  0
  8 16  1  0  0  0  0
  9 17  1  0  0  0  0
 10 18  1  0  0  0  0
 10 19  1  0  0  0  0
M  END
> <PUBCHEM_COMPOUND_CID>
5315892

> <PUBCHEM_COMPOUND_CANONICALIZED>
1

> <PUBCHEM_CACTVS_COMPLEXITY>
101

> <PUBCHEM_CACTVS_HBOND_ACCEPTOR>
1

> <PUBCHEM_CACTVS_HBOND_DONOR>
1

> <PUBCHEM_CACTVS_ROTATABLE_BOND>
2

> <PUBCHEM_CACTVS_SUBSKEYS>
AAADccBwIAAAAAAAAAAAAAAAAAAAAAAAAAAwAAAAAAAAAAABAAAAGgAACAAADACgmAIwAIAAAgCAAiBCAAACAAAgAAAIiAAAAIgINCKAERCAMAAggAAImAcAgAAOAAAAAAAAAAAAAAAAAAAAAAAAAAAAAA==

> <PUBCHEM_IUPAC_OPENEYE_NAME>
(~{E})-3-phenylprop-2-en-1-ol

> <PUBCHEM_IUPAC_CAS_NAME>
(~{E})-3-phenyl-2-propen-1-ol

> <PUBCHEM_IUPAC_NAME>
(~{E})-3-phenylprop-2-en-1-ol

> <PUBCHEM_IUPAC_SYSTEMATIC_NAME>
(~{E})-3-phenylprop-2-en-1-ol

> <PUBCHEM_IUPAC_TRADITIONAL_NAME>
(~{E})-3-phenylprop-2-en-1-ol

> <PUBCHEM_IUPAC_INCHI>
InChI=1S/C9H10O/c10-8-4-7-9-5-2-1-3-6-9/h1-7,10H,8H2/b7-4+

> <PUBCHEM_IUPAC_INCHIKEY>
OOCCDEMITAIZTP-QPJJXVBHSA-N

> <PUBCHEM_XLOGP3>
1.9

> <PUBCHEM_EXACT_MASS>
134.073

> <PUBCHEM_MOLECULAR_FORMULA>
C9H10O

> <PUBCHEM_MOLECULAR_WEIGHT>
134.178

> <PUBCHEM_OPENEYE_CAN_SMILES>
C1=CC=C(C=C1)C=CCO

> <PUBCHEM_OPENEYE_ISO_SMILES>
C1=CC=C(C=C1)/C=C/CO

> <PUBCHEM_CACTVS_TPSA>
20.2

> <PUBCHEM_MONOISOTOPIC_WEIGHT>
134.073

> <PUBCHEM_TOTAL_CHARGE>
0

> <PUBCHEM_HEAVY_ATOM_COUNT>
10

> <PUBCHEM_ATOM_DEF_STEREO_COUNT>
0

> <PUBCHEM_ATOM_UDEF_STEREO_COUNT>
0

> <PUBCHEM_BOND_DEF_STEREO_COUNT>
1

> <PUBCHEM_BOND_UDEF_STEREO_COUNT>
0

> <PUBCHEM_ISOTOPIC_ATOM_COUNT>
0

> <PUBCHEM_COMPONENT_COUNT>
1

> <PUBCHEM_CACTVS_TAUTO_COUNT>
-1

> <PUBCHEM_COORDINATE_TYPE>
1 __ 5 __ 255

> <PUBCHEM_BONDANNOTATIONS>
2  4  8 __ 2  5  8 __ 4  6  8 __ 5  7  8 __ 6  9  8 __ 7  9  8

$$$$
61151
 OpenBabel02201912233D

 22 22  0  0  0  0  0  0  0  0999 V2000
    1.3128    0.1084   -0.7092 O   0  0  0  0  0  0  0  0  0  0  0  0
    2.7169   -1.8000    0.6737 O   0  0  0  0  0  0  0  0  0  0  0  0
    1.2472   -3.3651    1.4693 O   0  0  0  0  0  0  0  0  0  0  0  0
    0.7150   -2.2132   -0.5345 C   0  0  0  0  0  0  0  0  0  0  0  0
    0.5575   -0.9543   -1.1370 C   0  0  0  0  0  0  0  0  0  0  0  0
   -0.0190   -3.3097   -1.0262 C   0  0  0  0  0  0  0  0  0  0  0  0
   -0.4146   -0.8029   -2.1422 C   0  0  0  0  0  0  0  0  0  0  0  0
   -0.9260   -3.1562   -2.0736 C   0  0  0  0  0  0  0  0  0  0  0  0
   -1.1435   -1.8959   -2.6127 C   0  0  0  0  0  0  0  0  0  0  0  0
    1.5560   -2.5031    0.6571 C   0  0  0  0  0  0  0  0  0  0  0  0
    1.5781    1.0934   -1.7125 C   0  0  0  0  0  0  0  0  0  0  0  0
    3.5714   -2.1552    1.7666 C   0  0  0  0  0  0  0  0  0  0  0  0
    0.1138   -4.2961   -0.5840 H   0  0  0  0  0  0  0  0  0  0  0  0
   -0.6382    0.1705   -2.5694 H   0  0  0  0  0  0  0  0  0  0  0  0
   -1.4775   -4.0144   -2.4481 H   0  0  0  0  0  0  0  0  0  0  0  0
   -1.8821   -1.7564   -3.3980 H   0  0  0  0  0  0  0  0  0  0  0  0
    2.4433    1.6843   -1.3991 H   0  0  0  0  0  0  0  0  0  0  0  0
    1.8230    0.6389   -2.6809 H   0  0  0  0  0  0  0  0  0  0  0  0
    0.7265    1.7752   -1.8128 H   0  0  0  0  0  0  0  0  0  0  0  0
    3.1232   -1.8550    2.7200 H   0  0  0  0  0  0  0  0  0  0  0  0
    3.7790   -3.2313    1.7659 H   0  0  0  0  0  0  0  0  0  0  0  0
    4.5206   -1.6268    1.6467 H   0  0  0  0  0  0  0  0  0  0  0  0
  1  5  1  0  0  0  0
  1 11  1  0  0  0  0
  2 10  1  0  0  0  0
  2 12  1  0  0  0  0
  3 10  2  0  0  0  0
  4  5  1  0  0  0  0
  4  6  2  0  0  0  0
  4 10  1  0  0  0  0
  5  7  2  0  0  0  0
  6  8  1  0  0  0  0
  6 13  1  0  0  0  0
  7  9  1  0  0  0  0
  7 14  1  0  0  0  0
  8  9  2  0  0  0  0
  8 15  1  0  0  0  0
  9 16  1  0  0  0  0
 11 17  1  0  0  0  0
 11 18  1  0  0  0  0
 11 19  1  0  0  0  0
 12 20  1  0  0  0  0
 12 21  1  0  0  0  0
 12 22  1  0  0  0  0
M  END
> <PUBCHEM_COMPOUND_CID>
61151

> <PUBCHEM_COMPOUND_CANONICALIZED>
1

> <PUBCHEM_CACTVS_COMPLEXITY>
156

> <PUBCHEM_CACTVS_HBOND_ACCEPTOR>
3

> <PUBCHEM_CACTVS_HBOND_DONOR>
0

> <PUBCHEM_CACTVS_ROTATABLE_BOND>
3

> <PUBCHEM_CACTVS_SUBSKEYS>
AAADccBwMAAAAAAAAAAAAAAAAAAAAAAAAAAwAAAAAAAAAAABAAAAGgAAAAAADASAmAIyDoAABACIAiDSCAACCAAkIAAIiAEGCMgMJzaENRqAMWAl4BEIqYeIyCCOAAAAAAAIAAAAAAAAABAAAAAAAAAAAA==

> <PUBCHEM_IUPAC_OPENEYE_NAME>
methyl 2-methoxybenzoate

> <PUBCHEM_IUPAC_CAS_NAME>
2-methoxybenzoic acid methyl ester

> <PUBCHEM_IUPAC_NAME>
methyl 2-methoxybenzoate

> <PUBCHEM_IUPAC_SYSTEMATIC_NAME>
methyl 2-methoxybenzoate

> <PUBCHEM_IUPAC_TRADITIONAL_NAME>
2-methoxybenzoic acid methyl ester

> <PUBCHEM_IUPAC_INCHI>
InChI=1S/C9H10O3/c1-11-8-6-4-3-5-7(8)9(10)12-2/h3-6H,1-2H3

> <PUBCHEM_IUPAC_INCHIKEY>
PFYHAAAQPNMZHO-UHFFFAOYSA-N

> <PUBCHEM_XLOGP3>
2

> <PUBCHEM_EXACT_MASS>
166.063

> <PUBCHEM_MOLECULAR_FORMULA>
C9H10O3

> <PUBCHEM_MOLECULAR_WEIGHT>
166.176

> <PUBCHEM_OPENEYE_CAN_SMILES>
COC1=CC=CC=C1C(=O)OC

> <PUBCHEM_OPENEYE_ISO_SMILES>
COC1=CC=CC=C1C(=O)OC

> <PUBCHEM_CACTVS_TPSA>
35.5

> <PUBCHEM_MONOISOTOPIC_WEIGHT>
166.063

> <PUBCHEM_TOTAL_CHARGE>
0

> <PUBCHEM_HEAVY_ATOM_COUNT>
12

> <PUBCHEM_ATOM_DEF_STEREO_COUNT>
0

> <PUBCHEM_ATOM_UDEF_STEREO_COUNT>
0

> <PUBCHEM_BOND_DEF_STEREO_COUNT>
0

> <PUBCHEM_BOND_UDEF_STEREO_COUNT>
0

> <PUBCHEM_ISOTOPIC_ATOM_COUNT>
0

> <PUBCHEM_COMPONENT_COUNT>
1

> <PUBCHEM_CACTVS_TAUTO_COUNT>
1

> <PUBCHEM_COORDINATE_TYPE>
1 __ 5 __ 255

> <PUBCHEM_BONDANNOTATIONS>
4  5  8 __ 4  6  8 __ 5  7  8 __ 6  8  8 __ 7  9  8 __ 8  9  8

$$$$
8815
 OpenBabel02201912233D

 23 23  0  0  0  0  0  0  0  0999 V2000
    0.8918    0.0329    0.0986 O   0  0  0  0  0  0  0  0  0  0  0  0
   -0.8708   -3.5889   -1.0177 C   0  0  0  0  0  0  0  0  0  0  0  0
   -1.4872   -4.8753   -1.5168 C   0  0  0  0  0  0  0  0  0  0  0  0
   -1.4348   -2.3500   -1.3476 C   0  0  0  0  0  0  0  0  0  0  0  0
    0.3171   -3.6124   -0.2742 C   0  0  0  0  0  0  0  0  0  0  0  0
    0.3608   -1.1928   -0.1951 C   0  0  0  0  0  0  0  0  0  0  0  0
   -0.8175   -1.1639   -0.9440 C   0  0  0  0  0  0  0  0  0  0  0  0
    0.9274   -2.4224    0.1387 C   0  0  0  0  0  0  0  0  0  0  0  0
   -0.9301   -5.2827   -2.8496 C   0  0  0  0  0  0  0  0  0  0  0  0
    1.7275    0.0997    1.2486 C   0  0  0  0  0  0  0  0  0  0  0  0
   -0.2639   -6.4219   -3.0804 C   0  0  0  0  0  0  0  0  0  0  0  0
   -1.3380   -5.6617   -0.7652 H   0  0  0  0  0  0  0  0  0  0  0  0
   -2.5746   -4.7508   -1.6041 H   0  0  0  0  0  0  0  0  0  0  0  0
   -2.3482   -2.2994   -1.9358 H   0  0  0  0  0  0  0  0  0  0  0  0
    0.7874   -4.5627   -0.0304 H   0  0  0  0  0  0  0  0  0  0  0  0
   -1.2560   -0.2081   -1.2186 H   0  0  0  0  0  0  0  0  0  0  0  0
    1.8598   -2.4940    0.6862 H   0  0  0  0  0  0  0  0  0  0  0  0
   -1.0830   -4.5881   -3.6733 H   0  0  0  0  0  0  0  0  0  0  0  0
    2.0890    1.1304    1.3320 H   0  0  0  0  0  0  0  0  0  0  0  0
    1.1520   -0.1306    2.1509 H   0  0  0  0  0  0  0  0  0  0  0  0
    2.6065   -0.5436    1.1629 H   0  0  0  0  0  0  0  0  0  0  0  0
    0.1200   -6.6456   -4.0708 H   0  0  0  0  0  0  0  0  0  0  0  0
   -0.0786   -7.1454   -2.2931 H   0  0  0  0  0  0  0  0  0  0  0  0
  1  6  1  0  0  0  0
  1 10  1  0  0  0  0
  2  3  1  0  0  0  0
  2  4  2  0  0  0  0
  2  5  1  0  0  0  0
  3  9  1  0  0  0  0
  3 12  1  0  0  0  0
  3 13  1  0  0  0  0
  4  7  1  0  0  0  0
  4 14  1  0  0  0  0
  5  8  2  0  0  0  0
  5 15  1  0  0  0  0
  6  7  2  0  0  0  0
  6  8  1  0  0  0  0
  7 16  1  0  0  0  0
  8 17  1  0  0  0  0
  9 11  2  0  0  0  0
  9 18  1  0  0  0  0
 10 19  1  0  0  0  0
 10 20  1  0  0  0  0
 10 21  1  0  0  0  0
 11 22  1  0  0  0  0
 11 23  1  0  0  0  0
M  END
> <PUBCHEM_COMPOUND_CID>
8815

> <PUBCHEM_COMPOUND_CANONICALIZED>
1

> <PUBCHEM_CACTVS_COMPLEXITY>
112

> <PUBCHEM_CACTVS_HBOND_ACCEPTOR>
1

> <PUBCHEM_CACTVS_HBOND_DONOR>
0

> <PUBCHEM_CACTVS_ROTATABLE_BOND>
3

> <PUBCHEM_CACTVS_SUBSKEYS>
AAADccBwIAAAAAAAAAAAAAAAAAAAAAAAAAAwAAAAAAAAAAABAAAAGgAAAAAADASAmAIyBoAABACAAiBCAAACCAAgIAAIiAAGCIgMJiKEMRqAMCAkwBEIqAeAwIAOIAAAAAAAAABAAAAAAAAAAAAAAAAAAA==

> <PUBCHEM_IUPAC_OPENEYE_NAME>
1-allyl-4-methoxy-benzene

> <PUBCHEM_IUPAC_CAS_NAME>
1-methoxy-4-prop-2-enylbenzene

> <PUBCHEM_IUPAC_NAME>
1-methoxy-4-prop-2-enylbenzene

> <PUBCHEM_IUPAC_SYSTEMATIC_NAME>
1-methoxy-4-prop-2-enyl-benzene

> <PUBCHEM_IUPAC_TRADITIONAL_NAME>
1-allyl-4-methoxy-benzene

> <PUBCHEM_IUPAC_INCHI>
InChI=1S/C10H12O/c1-3-4-9-5-7-10(11-2)8-6-9/h3,5-8H,1,4H2,2H3

> <PUBCHEM_IUPAC_INCHIKEY>
ZFMSMUAANRJZFM-UHFFFAOYSA-N

> <PUBCHEM_XLOGP3>
3.4

> <PUBCHEM_EXACT_MASS>
148.089

> <PUBCHEM_MOLECULAR_FORMULA>
C10H12O

> <PUBCHEM_MOLECULAR_WEIGHT>
148.205

> <PUBCHEM_OPENEYE_CAN_SMILES>
COC1=CC=C(C=C1)CC=C

> <PUBCHEM_OPENEYE_ISO_SMILES>
COC1=CC=C(C=C1)CC=C

> <PUBCHEM_CACTVS_TPSA>
9.2

> <PUBCHEM_MONOISOTOPIC_WEIGHT>
148.089

> <PUBCHEM_TOTAL_CHARGE>
0

> <PUBCHEM_HEAVY_ATOM_COUNT>
11

> <PUBCHEM_ATOM_DEF_STEREO_COUNT>
0

> <PUBCHEM_ATOM_UDEF_STEREO_COUNT>
0

> <PUBCHEM_BOND_DEF_STEREO_COUNT>
0

> <PUBCHEM_BOND_UDEF_STEREO_COUNT>
0

> <PUBCHEM_ISOTOPIC_ATOM_COUNT>
0

> <PUBCHEM_COMPONENT_COUNT>
1

> <PUBCHEM_CACTVS_TAUTO_COUNT>
-1

> <PUBCHEM_COORDINATE_TYPE>
1 __ 5 __ 255

> <PUBCHEM_BONDANNOTATIONS>
2  4  8 __ 2  5  8 __ 4  7  8 __ 5  8  8 __ 6  7  8 __ 6  8  8

$$$$
3314
 OpenBabel02201912233D

 24 24  0  0  0  0  0  0  0  0999 V2000
    0.8921   -0.0708    0.0820 O   0  0  0  0  0  0  0  0  0  0  0  0
    1.6684   -2.7486    0.9924 O   0  0  0  0  0  0  0  0  0  0  0  0
   -1.1290   -2.2068   -2.0583 C   0  0  0  0  0  0  0  0  0  0  0  0
   -2.1404   -2.0227   -3.1642 C   0  0  0  0  0  0  0  0  0  0  0  0
   -0.5490   -1.0965   -1.4263 C   0  0  0  0  0  0  0  0  0  0  0  0
    0.4157   -1.2526   -0.4221 C   0  0  0  0  0  0  0  0  0  0  0  0
   -0.7654   -3.4902   -1.6338 C   0  0  0  0  0  0  0  0  0  0  0  0
    0.7645   -2.5442   -0.0133 C   0  0  0  0  0  0  0  0  0  0  0  0
    0.1728   -3.6582   -0.6142 C   0  0  0  0  0  0  0  0  0  0  0  0
   -3.5506   -1.9466   -2.6531 C   0  0  0  0  0  0  0  0  0  0  0  0
    2.2332   -0.0914    0.5560 C   0  0  0  0  0  0  0  0  0  0  0  0
   -4.3776   -0.9167   -2.8720 C   0  0  0  0  0  0  0  0  0  0  0  0
   -1.8803   -1.1287   -3.7470 H   0  0  0  0  0  0  0  0  0  0  0  0
   -2.0650   -2.8635   -3.8651 H   0  0  0  0  0  0  0  0  0  0  0  0
   -0.8361   -0.0904   -1.7274 H   0  0  0  0  0  0  0  0  0  0  0  0
   -1.2135   -4.3680   -2.0938 H   0  0  0  0  0  0  0  0  0  0  0  0
    0.4262   -4.6662   -0.3000 H   0  0  0  0  0  0  0  0  0  0  0  0
   -3.9116   -2.7976   -2.0784 H   0  0  0  0  0  0  0  0  0  0  0  0
    2.5740    0.9462    0.6277 H   0  0  0  0  0  0  0  0  0  0  0  0
    2.2887   -0.5148    1.5627 H   0  0  0  0  0  0  0  0  0  0  0  0
    2.9034   -0.6098   -0.1389 H   0  0  0  0  0  0  0  0  0  0  0  0
    1.7671   -3.7027    1.1398 H   0  0  0  0  0  0  0  0  0  0  0  0
   -5.3901   -0.9254   -2.4806 H   0  0  0  0  0  0  0  0  0  0  0  0
   -4.0677   -0.0446   -3.4410 H   0  0  0  0  0  0  0  0  0  0  0  0
  1  6  1  0  0  0  0
  1 11  1  0  0  0  0
  2  8  1  0  0  0  0
  2 22  1  0  0  0  0
  3  4  1  0  0  0  0
  3  5  2  0  0  0  0
  3  7  1  0  0  0  0
  4 10  1  0  0  0  0
  4 13  1  0  0  0  0
  4 14  1  0  0  0  0
  5  6  1  0  0  0  0
  5 15  1  0  0  0  0
  6  8  2  0  0  0  0
  7  9  2  0  0  0  0
  7 16  1  0  0  0  0
  8  9  1  0  0  0  0
  9 17  1  0  0  0  0
 10 12  2  0  0  0  0
 10 18  1  0  0  0  0
 11 19  1  0  0  0  0
 11 20  1  0  0  0  0
 11 21  1  0  0  0  0
 12 23  1  0  0  0  0
 12 24  1  0  0  0  0
M  END
> <PUBCHEM_COMPOUND_CID>
3314

> <PUBCHEM_COMPOUND_CANONICALIZED>
1

> <PUBCHEM_CACTVS_COMPLEXITY>
145

> <PUBCHEM_CACTVS_HBOND_ACCEPTOR>
2

> <PUBCHEM_CACTVS_HBOND_DONOR>
1

> <PUBCHEM_CACTVS_ROTATABLE_BOND>
3

> <PUBCHEM_CACTVS_SUBSKEYS>
AAADccBwMAAAAAAAAAAAAAAAAAAAAAAAAAAwAAAAAAAAAAABAAAAGgAACAAADASAmAIyBoAABgCAAiBCAAACCAAgIAAIiAAGiIgNJiKGMRqAcCMkwBELuAeAwLAOIAABAAAAQABAAAIAAACAAAAAAAAAAA==

> <PUBCHEM_IUPAC_OPENEYE_NAME>
4-allyl-2-methoxy-phenol

> <PUBCHEM_IUPAC_CAS_NAME>
2-methoxy-4-prop-2-enylphenol

> <PUBCHEM_IUPAC_NAME>
2-methoxy-4-prop-2-enylphenol

> <PUBCHEM_IUPAC_SYSTEMATIC_NAME>
2-methoxy-4-prop-2-enyl-phenol

> <PUBCHEM_IUPAC_TRADITIONAL_NAME>
eugenol

> <PUBCHEM_IUPAC_INCHI>
InChI=1S/C10H12O2/c1-3-4-8-5-6-9(11)10(7-8)12-2/h3,5-7,11H,1,4H2,2H3

> <PUBCHEM_IUPAC_INCHIKEY>
RRAFCDWBNXTKKO-UHFFFAOYSA-N

> <PUBCHEM_XLOGP3>
2

> <PUBCHEM_EXACT_MASS>
164.084

> <PUBCHEM_MOLECULAR_FORMULA>
C10H12O2

> <PUBCHEM_MOLECULAR_WEIGHT>
164.204

> <PUBCHEM_OPENEYE_CAN_SMILES>
COC1=C(C=CC(=C1)CC=C)O

> <PUBCHEM_OPENEYE_ISO_SMILES>
COC1=C(C=CC(=C1)CC=C)O

> <PUBCHEM_CACTVS_TPSA>
29.5

> <PUBCHEM_MONOISOTOPIC_WEIGHT>
164.084

> <PUBCHEM_TOTAL_CHARGE>
0

> <PUBCHEM_HEAVY_ATOM_COUNT>
12

> <PUBCHEM_ATOM_DEF_STEREO_COUNT>
0

> <PUBCHEM_ATOM_UDEF_STEREO_COUNT>
0

> <PUBCHEM_BOND_DEF_STEREO_COUNT>
0

> <PUBCHEM_BOND_UDEF_STEREO_COUNT>
0

> <PUBCHEM_ISOTOPIC_ATOM_COUNT>
0

> <PUBCHEM_COMPONENT_COUNT>
1

> <PUBCHEM_CACTVS_TAUTO_COUNT>
-1

> <PUBCHEM_COORDINATE_TYPE>
1 __ 5 __ 255

> <PUBCHEM_BONDANNOTATIONS>
3  5  8 __ 3  7  8 __ 5  6  8 __ 6  8  8 __ 7  9  8 __ 8  9  8

$$$$
798
 OpenBabel02201912233D

 16 17  0  0  0  0  0  0  0  0999 V2000
   -1.5764   -1.0784    0.0207 N   0  0  0  0  0  0  0  0  0  0  0  0
   -0.2640   -0.6637   -0.0111 C   0  0  0  0  0  0  0  0  0  0  0  0
   -0.2747    0.7314    0.0062 C   0  0  0  0  0  0  0  0  0  0  0  0
   -1.6366    1.1393    0.0489 C   0  0  0  0  0  0  0  0  0  0  0  0
    0.9199   -1.4096   -0.0537 C   0  0  0  0  0  0  0  0  0  0  0  0
    0.9538    1.4190   -0.0198 C   0  0  0  0  0  0  0  0  0  0  0  0
   -2.4150    0.0043    0.0562 C   0  0  0  0  0  0  0  0  0  0  0  0
    2.1274   -0.7048   -0.0799 C   0  0  0  0  0  0  0  0  0  0  0  0
    2.1471    0.6884   -0.0632 C   0  0  0  0  0  0  0  0  0  0  0  0
   -1.8711   -2.0449    0.0175 H   0  0  0  0  0  0  0  0  0  0  0  0
   -2.0041    2.1566    0.0711 H   0  0  0  0  0  0  0  0  0  0  0  0
    0.9086   -2.4943   -0.0667 H   0  0  0  0  0  0  0  0  0  0  0  0
    0.9771    2.5044   -0.0069 H   0  0  0  0  0  0  0  0  0  0  0  0
   -3.4883   -0.1259    0.0835 H   0  0  0  0  0  0  0  0  0  0  0  0
    3.0657   -1.2538   -0.1140 H   0  0  0  0  0  0  0  0  0  0  0  0
    3.0976    1.2157   -0.0841 H   0  0  0  0  0  0  0  0  0  0  0  0
  1  2  1  0  0  0  0
  1  7  1  0  0  0  0
  1 10  1  0  0  0  0
  2  3  1  0  0  0  0
  2  5  2  0  0  0  0
  3  4  1  0  0  0  0
  3  6  2  0  0  0  0
  4  7  2  0  0  0  0
  4 11  1  0  0  0  0
  5  8  1  0  0  0  0
  5 12  1  0  0  0  0
  6  9  1  0  0  0  0
  6 13  1  0  0  0  0
  7 14  1  0  0  0  0
  8  9  2  0  0  0  0
  8 15  1  0  0  0  0
  9 16  1  0  0  0  0
M  END
> <PUBCHEM_COMPOUND_CID>
798

> <PUBCHEM_COMPOUND_CANONICALIZED>
1

> <PUBCHEM_CACTVS_COMPLEXITY>
101

> <PUBCHEM_CACTVS_HBOND_ACCEPTOR>
0

> <PUBCHEM_CACTVS_HBOND_DONOR>
1

> <PUBCHEM_CACTVS_ROTATABLE_BOND>
0

> <PUBCHEM_CACTVS_SUBSKEYS>
AAADcYByAAAAAAAAAAAAAAAAAAAAAWAAAAAwAAAAAAAAAFgB8AAAHAAQAAAADAjBHgQ8wPLJkACgAzRnRACCgCAxAiAI2aA4ZJgIIOLAkZGEIAhgkADIyAcQgIAOAAAAAAACAAAAAAAAAAQAAAAAAAAAAA==

> <PUBCHEM_IUPAC_OPENEYE_NAME>
indole

> <PUBCHEM_IUPAC_CAS_NAME>
1~{H}-indole

> <PUBCHEM_IUPAC_NAME>
1~{H}-indole

> <PUBCHEM_IUPAC_SYSTEMATIC_NAME>
1~{H}-indole

> <PUBCHEM_IUPAC_TRADITIONAL_NAME>
indole

> <PUBCHEM_IUPAC_INCHI>
InChI=1S/C8H7N/c1-2-4-8-7(3-1)5-6-9-8/h1-6,9H

> <PUBCHEM_IUPAC_INCHIKEY>
SIKJAQJRHWYJAI-UHFFFAOYSA-N

> <PUBCHEM_XLOGP3>
2.1

> <PUBCHEM_EXACT_MASS>
117.058

> <PUBCHEM_MOLECULAR_FORMULA>
C8H7N

> <PUBCHEM_MOLECULAR_WEIGHT>
117.151

> <PUBCHEM_OPENEYE_CAN_SMILES>
C1=CC=C2C(=C1)C=CN2

> <PUBCHEM_OPENEYE_ISO_SMILES>
C1=CC=C2C(=C1)C=CN2

> <PUBCHEM_CACTVS_TPSA>
15.8

> <PUBCHEM_MONOISOTOPIC_WEIGHT>
117.058

> <PUBCHEM_TOTAL_CHARGE>
0

> <PUBCHEM_HEAVY_ATOM_COUNT>
9

> <PUBCHEM_ATOM_DEF_STEREO_COUNT>
0

> <PUBCHEM_ATOM_UDEF_STEREO_COUNT>
0

> <PUBCHEM_BOND_DEF_STEREO_COUNT>
0

> <PUBCHEM_BOND_UDEF_STEREO_COUNT>
0

> <PUBCHEM_ISOTOPIC_ATOM_COUNT>
0

> <PUBCHEM_COMPONENT_COUNT>
1

> <PUBCHEM_CACTVS_TAUTO_COUNT>
-1

> <PUBCHEM_COORDINATE_TYPE>
1 __ 5 __ 255

> <PUBCHEM_BONDANNOTATIONS>
1  2  8 __ 1  7  8 __ 2  3  8 __ 2  5  8 __ 3  4  8 __ 3  6  8 __ 4  7  8 __ 5  8  8 __ 6  9  8 __ 8  9  8

$$$$
7193
 OpenBabel02201912233D

 30 30  0  0  0  0  0  0  0  0999 V2000
    1.3366   -0.0183    0.0215 O   0  0  0  0  0  0  0  0  0  0  0  0
    0.1770    1.5248   -1.2203 O   0  0  0  0  0  0  0  0  0  0  0  0
    1.8839   -2.1672   -2.0224 C   0  0  0  0  0  0  0  0  0  0  0  0
    0.4813   -1.6392   -1.6701 C   0  0  0  0  0  0  0  0  0  0  0  0
    0.3471   -1.0209   -0.2733 C   0  0  0  0  0  0  0  0  0  0  0  0
    2.3247   -3.3122   -1.1092 C   0  0  0  0  0  0  0  0  0  0  0  0
    1.9249   -2.6435   -3.4798 C   0  0  0  0  0  0  0  0  0  0  0  0
    1.0710    1.2287   -0.4392 C   0  0  0  0  0  0  0  0  0  0  0  0
    1.9911    2.2396    0.1599 C   0  0  0  0  0  0  0  0  0  0  0  0
    1.9593    3.5493   -0.3428 C   0  0  0  0  0  0  0  0  0  0  0  0
    2.8418    1.9422    1.2332 C   0  0  0  0  0  0  0  0  0  0  0  0
    2.7742    4.5422    0.2057 C   0  0  0  0  0  0  0  0  0  0  0  0
    3.6544    2.9418    1.7837 C   0  0  0  0  0  0  0  0  0  0  0  0
    3.6240    4.2365    1.2687 C   0  0  0  0  0  0  0  0  0  0  0  0
    2.5995   -1.3431   -1.9204 H   0  0  0  0  0  0  0  0  0  0  0  0
   -0.2545   -2.4482   -1.7647 H   0  0  0  0  0  0  0  0  0  0  0  0
    0.2046   -0.8800   -2.4113 H   0  0  0  0  0  0  0  0  0  0  0  0
    0.4501   -1.7970    0.4914 H   0  0  0  0  0  0  0  0  0  0  0  0
   -0.6591   -0.6026   -0.1418 H   0  0  0  0  0  0  0  0  0  0  0  0
    1.6785   -4.1891   -1.2314 H   0  0  0  0  0  0  0  0  0  0  0  0
    3.3492   -3.6167   -1.3463 H   0  0  0  0  0  0  0  0  0  0  0  0
    2.3052   -3.0217   -0.0549 H   0  0  0  0  0  0  0  0  0  0  0  0
    1.4506   -1.9207   -4.1527 H   0  0  0  0  0  0  0  0  0  0  0  0
    2.9617   -2.7721   -3.8090 H   0  0  0  0  0  0  0  0  0  0  0  0
    1.4137   -3.6048   -3.6044 H   0  0  0  0  0  0  0  0  0  0  0  0
    1.2912    3.8032   -1.1635 H   0  0  0  0  0  0  0  0  0  0  0  0
    2.8725    0.9448    1.6606 H   0  0  0  0  0  0  0  0  0  0  0  0
    2.7422    5.5526   -0.1912 H   0  0  0  0  0  0  0  0  0  0  0  0
    4.3083    2.7087    2.6210 H   0  0  0  0  0  0  0  0  0  0  0  0
    4.2564    5.0105    1.6985 H   0  0  0  0  0  0  0  0  0  0  0  0
  1  5  1  0  0  0  0
  1  8  1  0  0  0  0
  2  8  2  0  0  0  0
  3  4  1  0  0  0  0
  3  6  1  0  0  0  0
  3  7  1  0  0  0  0
  3 15  1  0  0  0  0
  4  5  1  0  0  0  0
  4 16  1  0  0  0  0
  4 17  1  0  0  0  0
  5 18  1  0  0  0  0
  5 19  1  0  0  0  0
  6 20  1  0  0  0  0
  6 21  1  0  0  0  0
  6 22  1  0  0  0  0
  7 23  1  0  0  0  0
  7 24  1  0  0  0  0
  7 25  1  0  0  0  0
  8  9  1  0  0  0  0
  9 10  2  0  0  0  0
  9 11  1  0  0  0  0
 10 12  1  0  0  0  0
 10 26  1  0  0  0  0
 11 13  2  0  0  0  0
 11 27  1  0  0  0  0
 12 14  2  0  0  0  0
 12 28  1  0  0  0  0
 13 14  1  0  0  0  0
 13 29  1  0  0  0  0
 14 30  1  0  0  0  0
M  END
> <PUBCHEM_COMPOUND_CID>
7193

> <PUBCHEM_COMPOUND_CANONICALIZED>
1

> <PUBCHEM_CACTVS_COMPLEXITY>
169

> <PUBCHEM_CACTVS_HBOND_ACCEPTOR>
2

> <PUBCHEM_CACTVS_HBOND_DONOR>
0

> <PUBCHEM_CACTVS_ROTATABLE_BOND>
5

> <PUBCHEM_CACTVS_SUBSKEYS>
AAADceBwMAAAAAAAAAAAAAAAAAAAAAAAAAAwAAAAAAAAAAABAAAAGgAAAAAADQCgmAIyCIAABACIAiDSCAACAAAkAAAIiAEACMgIJjKANRiCMQAkwAEIqYeIyCCOAAAAAAAAAAAAAAAAAAAAAAAAAAAAAA==

> <PUBCHEM_IUPAC_OPENEYE_NAME>
isopentyl benzoate

> <PUBCHEM_IUPAC_CAS_NAME>
benzoic acid 3-methylbutyl ester

> <PUBCHEM_IUPAC_NAME>
3-methylbutyl benzoate

> <PUBCHEM_IUPAC_SYSTEMATIC_NAME>
3-methylbutyl benzoate

> <PUBCHEM_IUPAC_TRADITIONAL_NAME>
benzoic acid isoamyl ester

> <PUBCHEM_IUPAC_INCHI>
InChI=1S/C12H16O2/c1-10(2)8-9-14-12(13)11-6-4-3-5-7-11/h3-7,10H,8-9H2,1-2H3

> <PUBCHEM_IUPAC_INCHIKEY>
MLLAPOCBLWUFAP-UHFFFAOYSA-N

> <PUBCHEM_XLOGP3>
3.8

> <PUBCHEM_EXACT_MASS>
192.115

> <PUBCHEM_MOLECULAR_FORMULA>
C12H16O2

> <PUBCHEM_MOLECULAR_WEIGHT>
192.258

> <PUBCHEM_OPENEYE_CAN_SMILES>
CC(C)CCOC(=O)C1=CC=CC=C1

> <PUBCHEM_OPENEYE_ISO_SMILES>
CC(C)CCOC(=O)C1=CC=CC=C1

> <PUBCHEM_CACTVS_TPSA>
26.3

> <PUBCHEM_MONOISOTOPIC_WEIGHT>
192.115

> <PUBCHEM_TOTAL_CHARGE>
0

> <PUBCHEM_HEAVY_ATOM_COUNT>
14

> <PUBCHEM_ATOM_DEF_STEREO_COUNT>
0

> <PUBCHEM_ATOM_UDEF_STEREO_COUNT>
0

> <PUBCHEM_BOND_DEF_STEREO_COUNT>
0

> <PUBCHEM_BOND_UDEF_STEREO_COUNT>
0

> <PUBCHEM_ISOTOPIC_ATOM_COUNT>
0

> <PUBCHEM_COMPONENT_COUNT>
1

> <PUBCHEM_CACTVS_TAUTO_COUNT>
-1

> <PUBCHEM_COORDINATE_TYPE>
1 __ 5 __ 255

> <PUBCHEM_BONDANNOTATIONS>
10  12  8 __ 11  13  8 __ 12  14  8 __ 13  14  8 __ 9  10  8 __ 9  11  8

$$$$
9015
 OpenBabel02201912233D

 17 17  0  0  0  0  0  0  0  0999 V2000
    0.9164    0.0998    0.1433 O   0  0  0  0  0  0  0  0  0  0  0  0
   -1.6888   -4.3323    2.1449 O   0  0  0  0  0  0  0  0  0  0  0  0
    0.3425   -1.0507    0.6100 C   0  0  0  0  0  0  0  0  0  0  0  0
    0.8627   -2.3397    0.4781 C   0  0  0  0  0  0  0  0  0  0  0  0
   -0.8750   -0.8680    1.2745 C   0  0  0  0  0  0  0  0  0  0  0  0
   -1.0442   -3.2355    1.6557 C   0  0  0  0  0  0  0  0  0  0  0  0
    0.1666   -3.4329    1.0030 C   0  0  0  0  0  0  0  0  0  0  0  0
   -1.5732   -1.9585    1.7990 C   0  0  0  0  0  0  0  0  0  0  0  0
    2.1369   -0.0380   -0.5736 C   0  0  0  0  0  0  0  0  0  0  0  0
    1.8043   -2.5306   -0.0248 H   0  0  0  0  0  0  0  0  0  0  0  0
   -1.2820    0.1344    1.3813 H   0  0  0  0  0  0  0  0  0  0  0  0
    0.5694   -4.4366    0.9008 H   0  0  0  0  0  0  0  0  0  0  0  0
   -2.5156   -1.7895    2.3091 H   0  0  0  0  0  0  0  0  0  0  0  0
    2.4525    0.9605   -0.8914 H   0  0  0  0  0  0  0  0  0  0  0  0
    2.9255   -0.4484    0.0658 H   0  0  0  0  0  0  0  0  0  0  0  0
    2.0003   -0.6461   -1.4741 H   0  0  0  0  0  0  0  0  0  0  0  0
   -2.5232   -4.0444    2.5503 H   0  0  0  0  0  0  0  0  0  0  0  0
  1  3  1  0  0  0  0
  1  9  1  0  0  0  0
  2  6  1  0  0  0  0
  2 17  1  0  0  0  0
  3  4  2  0  0  0  0
  3  5  1  0  0  0  0
  4  7  1  0  0  0  0
  4 10  1  0  0  0  0
  5  8  2  0  0  0  0
  5 11  1  0  0  0  0
  6  7  2  0  0  0  0
  6  8  1  0  0  0  0
  7 12  1  0  0  0  0
  8 13  1  0  0  0  0
  9 14  1  0  0  0  0
  9 15  1  0  0  0  0
  9 16  1  0  0  0  0
M  END
> <PUBCHEM_COMPOUND_CID>
9015

> <PUBCHEM_COMPOUND_CANONICALIZED>
1

> <PUBCHEM_CACTVS_COMPLEXITY>
75

> <PUBCHEM_CACTVS_HBOND_ACCEPTOR>
2

> <PUBCHEM_CACTVS_HBOND_DONOR>
1

> <PUBCHEM_CACTVS_ROTATABLE_BOND>
1

> <PUBCHEM_CACTVS_SUBSKEYS>
AAADccBgMAAAAAAAAAAAAAAAAAAAAAAAAAAwAAAAAAAAAAABAAAAGgAACAAACASAkAIyBoAABgCAACBCAAACCAAgIAAIiAAGCIgMJiKGMRqAcCAkwBEIuAfAQAAAAQAAAAAAAAACAAAAAAAAAAAAAAAAAA==

> <PUBCHEM_IUPAC_OPENEYE_NAME>
4-methoxyphenol

> <PUBCHEM_IUPAC_CAS_NAME>
4-methoxyphenol

> <PUBCHEM_IUPAC_NAME>
4-methoxyphenol

> <PUBCHEM_IUPAC_SYSTEMATIC_NAME>
4-methoxyphenol

> <PUBCHEM_IUPAC_TRADITIONAL_NAME>
4-methoxyphenol

> <PUBCHEM_IUPAC_INCHI>
InChI=1S/C7H8O2/c1-9-7-4-2-6(8)3-5-7/h2-5,8H,1H3

> <PUBCHEM_IUPAC_INCHIKEY>
NWVVVBRKAWDGAB-UHFFFAOYSA-N

> <PUBCHEM_XLOGP3>
1.3

> <PUBCHEM_EXACT_MASS>
124.052

> <PUBCHEM_MOLECULAR_FORMULA>
C7H8O2

> <PUBCHEM_MOLECULAR_WEIGHT>
124.139

> <PUBCHEM_OPENEYE_CAN_SMILES>
COC1=CC=C(C=C1)O

> <PUBCHEM_OPENEYE_ISO_SMILES>
COC1=CC=C(C=C1)O

> <PUBCHEM_CACTVS_TPSA>
29.5

> <PUBCHEM_MONOISOTOPIC_WEIGHT>
124.052

> <PUBCHEM_TOTAL_CHARGE>
0

> <PUBCHEM_HEAVY_ATOM_COUNT>
9

> <PUBCHEM_ATOM_DEF_STEREO_COUNT>
0

> <PUBCHEM_ATOM_UDEF_STEREO_COUNT>
0

> <PUBCHEM_BOND_DEF_STEREO_COUNT>
0

> <PUBCHEM_BOND_UDEF_STEREO_COUNT>
0

> <PUBCHEM_ISOTOPIC_ATOM_COUNT>
0

> <PUBCHEM_COMPONENT_COUNT>
1

> <PUBCHEM_CACTVS_TAUTO_COUNT>
-1

> <PUBCHEM_COORDINATE_TYPE>
1 __ 5 __ 255

> <PUBCHEM_BONDANNOTATIONS>
3  4  8 __ 3  5  8 __ 4  7  8 __ 5  8  8 __ 6  7  8 __ 6  8  8

$$$$
7559
 OpenBabel02201912233D

 21 21  0  0  0  0  0  0  0  0999 V2000
   -1.5450   -1.0882   -3.3070 O   0  0  0  0  0  0  0  0  0  0  0  0
   -2.9071    0.5135   -2.3788 O   0  0  0  0  0  0  0  0  0  0  0  0
   -1.5158   -1.4019   -0.1255 C   0  0  0  0  0  0  0  0  0  0  0  0
   -1.0409   -0.3693   -1.1136 C   0  0  0  0  0  0  0  0  0  0  0  0
   -1.0904   -2.7335   -0.2285 C   0  0  0  0  0  0  0  0  0  0  0  0
   -2.4101   -1.0505    0.8948 C   0  0  0  0  0  0  0  0  0  0  0  0
   -1.9460   -0.2430   -2.3141 C   0  0  0  0  0  0  0  0  0  0  0  0
   -1.5365   -3.6906    0.6844 C   0  0  0  0  0  0  0  0  0  0  0  0
   -2.8536   -2.0091    1.8073 C   0  0  0  0  0  0  0  0  0  0  0  0
   -2.4149   -3.3277    1.7038 C   0  0  0  0  0  0  0  0  0  0  0  0
   -2.3583   -1.0329   -4.4793 C   0  0  0  0  0  0  0  0  0  0  0  0
   -0.0201   -0.5929   -1.4479 H   0  0  0  0  0  0  0  0  0  0  0  0
   -0.9717    0.6154   -0.6347 H   0  0  0  0  0  0  0  0  0  0  0  0
   -0.4088   -3.0346   -1.0214 H   0  0  0  0  0  0  0  0  0  0  0  0
   -2.7689   -0.0269    0.9845 H   0  0  0  0  0  0  0  0  0  0  0  0
   -1.1992   -4.7202    0.5994 H   0  0  0  0  0  0  0  0  0  0  0  0
   -3.5437   -1.7267    2.5981 H   0  0  0  0  0  0  0  0  0  0  0  0
   -2.7608   -4.0733    2.4147 H   0  0  0  0  0  0  0  0  0  0  0  0
   -1.9667   -1.7585   -5.1976 H   0  0  0  0  0  0  0  0  0  0  0  0
   -3.3928   -1.3020   -4.2444 H   0  0  0  0  0  0  0  0  0  0  0  0
   -2.3084   -0.0373   -4.9314 H   0  0  0  0  0  0  0  0  0  0  0  0
  1  7  1  0  0  0  0
  1 11  1  0  0  0  0
  2  7  2  0  0  0  0
  3  4  1  0  0  0  0
  3  5  2  0  0  0  0
  3  6  1  0  0  0  0
  4  7  1  0  0  0  0
  4 12  1  0  0  0  0
  4 13  1  0  0  0  0
  5  8  1  0  0  0  0
  5 14  1  0  0  0  0
  6  9  2  0  0  0  0
  6 15  1  0  0  0  0
  8 10  2  0  0  0  0
  8 16  1  0  0  0  0
  9 10  1  0  0  0  0
  9 17  1  0  0  0  0
 10 18  1  0  0  0  0
 11 19  1  0  0  0  0
 11 20  1  0  0  0  0
 11 21  1  0  0  0  0
M  END
> <PUBCHEM_COMPOUND_CID>
7559

> <PUBCHEM_COMPOUND_CANONICALIZED>
1

> <PUBCHEM_CACTVS_COMPLEXITY>
126

> <PUBCHEM_CACTVS_HBOND_ACCEPTOR>
2

> <PUBCHEM_CACTVS_HBOND_DONOR>
0

> <PUBCHEM_CACTVS_ROTATABLE_BOND>
3

> <PUBCHEM_CACTVS_SUBSKEYS>
AAADccBwMAAAAAAAAAAAAAAAAAAAAAAAAAAwAAAAAAAAAAABAAAAGgAAAAAADACAmAIyCIAABACIAiDSCAACAAAgAAAIiAEAAIgIIDKAFRCAIAAkwAEIiAeIyKCOAAAAAAAAAAAAAAAAAAAAAAAAAAAAAA==

> <PUBCHEM_IUPAC_OPENEYE_NAME>
methyl 2-phenylacetate

> <PUBCHEM_IUPAC_CAS_NAME>
2-phenylacetic acid methyl ester

> <PUBCHEM_IUPAC_NAME>
methyl 2-phenylacetate

> <PUBCHEM_IUPAC_SYSTEMATIC_NAME>
methyl 2-phenylethanoate

> <PUBCHEM_IUPAC_TRADITIONAL_NAME>
2-phenylacetic acid methyl ester

> <PUBCHEM_IUPAC_INCHI>
InChI=1S/C9H10O2/c1-11-9(10)7-8-5-3-2-4-6-8/h2-6H,7H2,1H3

> <PUBCHEM_IUPAC_INCHIKEY>
CRZQGDNQQAALAY-UHFFFAOYSA-N

> <PUBCHEM_XLOGP3>
1.8

> <PUBCHEM_EXACT_MASS>
150.068

> <PUBCHEM_MOLECULAR_FORMULA>
C9H10O2

> <PUBCHEM_MOLECULAR_WEIGHT>
150.177

> <PUBCHEM_OPENEYE_CAN_SMILES>
COC(=O)CC1=CC=CC=C1

> <PUBCHEM_OPENEYE_ISO_SMILES>
COC(=O)CC1=CC=CC=C1

> <PUBCHEM_CACTVS_TPSA>
26.3

> <PUBCHEM_MONOISOTOPIC_WEIGHT>
150.068

> <PUBCHEM_TOTAL_CHARGE>
0

> <PUBCHEM_HEAVY_ATOM_COUNT>
11

> <PUBCHEM_ATOM_DEF_STEREO_COUNT>
0

> <PUBCHEM_ATOM_UDEF_STEREO_COUNT>
0

> <PUBCHEM_BOND_DEF_STEREO_COUNT>
0

> <PUBCHEM_BOND_UDEF_STEREO_COUNT>
0

> <PUBCHEM_ISOTOPIC_ATOM_COUNT>
0

> <PUBCHEM_COMPONENT_COUNT>
1

> <PUBCHEM_CACTVS_TAUTO_COUNT>
-1

> <PUBCHEM_COORDINATE_TYPE>
1 __ 5 __ 255

> <PUBCHEM_BONDANNOTATIONS>
3  5  8 __ 3  6  8 __ 5  8  8 __ 6  9  8 __ 8  10  8 __ 9  10  8

$$$$
267569
 OpenBabel02201912233D

 19 19  0  0  0  0  0  0  0  0999 V2000
    2.5807   -1.4919    0.1136 O   0  0  0  0  0  0  0  0  0  0  0  0
    1.9488    2.6406   -0.0023 N   0  0  0  0  0  0  0  0  0  0  0  0
    2.8685    2.0671    0.8958 C   0  0  0  0  0  0  0  0  0  0  0  0
    3.0557    0.6676    0.9940 C   0  0  0  0  0  0  0  0  0  0  0  0
    3.5379    2.8542    1.8524 C   0  0  0  0  0  0  0  0  0  0  0  0
    3.9542    0.1149    1.9278 C   0  0  0  0  0  0  0  0  0  0  0  0
    4.4196    2.3031    2.7907 C   0  0  0  0  0  0  0  0  0  0  0  0
    4.6416    0.9321    2.8168 C   0  0  0  0  0  0  0  0  0  0  0  0
    2.1551    4.0143   -0.4477 C   0  0  0  0  0  0  0  0  0  0  0  0
    2.3182   -0.2944    0.1355 C   0  0  0  0  0  0  0  0  0  0  0  0
    3.3784    3.9267    1.9067 H   0  0  0  0  0  0  0  0  0  0  0  0
    1.7664    2.0516   -0.8091 H   0  0  0  0  0  0  0  0  0  0  0  0
    4.1040   -0.9627    1.9724 H   0  0  0  0  0  0  0  0  0  0  0  0
    4.9211    2.9483    3.5070 H   0  0  0  0  0  0  0  0  0  0  0  0
    5.3253    0.4993    3.5415 H   0  0  0  0  0  0  0  0  0  0  0  0
    3.0609    4.0878   -1.0597 H   0  0  0  0  0  0  0  0  0  0  0  0
    1.3059    4.3128   -1.0719 H   0  0  0  0  0  0  0  0  0  0  0  0
    2.2049    4.7332    0.3742 H   0  0  0  0  0  0  0  0  0  0  0  0
    1.5097    0.1036   -0.4929 H   0  0  0  0  0  0  0  0  0  0  0  0
  1 10  2  0  0  0  0
  2  3  1  0  0  0  0
  2  9  1  0  0  0  0
  2 12  1  0  0  0  0
  3  4  1  0  0  0  0
  3  5  2  0  0  0  0
  4  6  2  0  0  0  0
  4 10  1  0  0  0  0
  5  7  1  0  0  0  0
  5 11  1  0  0  0  0
  6  8  1  0  0  0  0
  6 13  1  0  0  0  0
  7  8  2  0  0  0  0
  7 14  1  0  0  0  0
  8 15  1  0  0  0  0
  9 16  1  0  0  0  0
  9 17  1  0  0  0  0
  9 18  1  0  0  0  0
 10 19  1  0  0  0  0
M  END
> <PUBCHEM_COMPOUND_CID>
267569

> <PUBCHEM_COMPOUND_CANONICALIZED>
1

> <PUBCHEM_CACTVS_COMPLEXITY>
114

> <PUBCHEM_CACTVS_HBOND_ACCEPTOR>
2

> <PUBCHEM_CACTVS_HBOND_DONOR>
1

> <PUBCHEM_CACTVS_ROTATABLE_BOND>
2

> <PUBCHEM_CACTVS_SUBSKEYS>
AAADccByIAAAAAAAAAAAAAAAAAAAAAAAAAAwAAAAAAAAAAABAAAAHgAQAAAADAihmAYywILAAACIAixSwACCAAAlAgAIiIEIZMgIIDrAlZGEIYhgkABIyccYiACOAAAAAAACAAAAAAAAAAQAAAAAAAAAAA==

> <PUBCHEM_IUPAC_OPENEYE_NAME>
2-(methylamino)benzaldehyde

> <PUBCHEM_IUPAC_CAS_NAME>
2-(methylamino)benzaldehyde

> <PUBCHEM_IUPAC_NAME>
2-(methylamino)benzaldehyde

> <PUBCHEM_IUPAC_SYSTEMATIC_NAME>
2-(methylamino)benzaldehyde

> <PUBCHEM_IUPAC_TRADITIONAL_NAME>
2-(methylamino)benzaldehyde

> <PUBCHEM_IUPAC_INCHI>
InChI=1S/C8H9NO/c1-9-8-5-3-2-4-7(8)6-10/h2-6,9H,1H3

> <PUBCHEM_IUPAC_INCHIKEY>
LIZGLUQDMOJDMM-UHFFFAOYSA-N

> <PUBCHEM_XLOGP3_AA>
1.9

> <PUBCHEM_EXACT_MASS>
135.068

> <PUBCHEM_MOLECULAR_FORMULA>
C8H9NO

> <PUBCHEM_MOLECULAR_WEIGHT>
135.166

> <PUBCHEM_OPENEYE_CAN_SMILES>
CNC1=CC=CC=C1C=O

> <PUBCHEM_OPENEYE_ISO_SMILES>
CNC1=CC=CC=C1C=O

> <PUBCHEM_CACTVS_TPSA>
29.1

> <PUBCHEM_MONOISOTOPIC_WEIGHT>
135.068

> <PUBCHEM_TOTAL_CHARGE>
0

> <PUBCHEM_HEAVY_ATOM_COUNT>
10

> <PUBCHEM_ATOM_DEF_STEREO_COUNT>
0

> <PUBCHEM_ATOM_UDEF_STEREO_COUNT>
0

> <PUBCHEM_BOND_DEF_STEREO_COUNT>
0

> <PUBCHEM_BOND_UDEF_STEREO_COUNT>
0

> <PUBCHEM_ISOTOPIC_ATOM_COUNT>
0

> <PUBCHEM_COMPONENT_COUNT>
1

> <PUBCHEM_CACTVS_TAUTO_COUNT>
-1

> <PUBCHEM_COORDINATE_TYPE>
1 __ 5 __ 255

> <PUBCHEM_BONDANNOTATIONS>
3  4  8 __ 3  5  8 __ 4  6  8 __ 5  7  8 __ 6  8  8 __ 7  8  8

$$$$
7150
 OpenBabel02201912233D

 18 18  0  0  0  0  0  0  0  0999 V2000
    0.8710   -0.3272   -0.3205 O   0  0  0  0  0  0  0  0  0  0  0  0
    0.9706   -1.6324    1.5642 O   0  0  0  0  0  0  0  0  0  0  0  0
   -1.1459   -1.0986    0.5912 C   0  0  0  0  0  0  0  0  0  0  0  0
   -1.8550   -1.7854    1.5868 C   0  0  0  0  0  0  0  0  0  0  0  0
   -1.8495   -0.4845   -0.4542 C   0  0  0  0  0  0  0  0  0  0  0  0
   -3.2483   -1.8600    1.5364 C   0  0  0  0  0  0  0  0  0  0  0  0
   -3.2440   -0.5623   -0.5014 C   0  0  0  0  0  0  0  0  0  0  0  0
   -3.9411   -1.2500    0.4918 C   0  0  0  0  0  0  0  0  0  0  0  0
    0.3389   -1.0630    0.6874 C   0  0  0  0  0  0  0  0  0  0  0  0
    2.2980   -0.2627   -0.2995 C   0  0  0  0  0  0  0  0  0  0  0  0
   -1.3232   -2.2664    2.4057 H   0  0  0  0  0  0  0  0  0  0  0  0
   -1.3262    0.0548   -1.2397 H   0  0  0  0  0  0  0  0  0  0  0  0
   -3.7911   -2.3958    2.3112 H   0  0  0  0  0  0  0  0  0  0  0  0
   -3.7869   -0.0876   -1.3154 H   0  0  0  0  0  0  0  0  0  0  0  0
   -5.0260   -1.3119    0.4510 H   0  0  0  0  0  0  0  0  0  0  0  0
    2.6162    0.4548   -1.0610 H   0  0  0  0  0  0  0  0  0  0  0  0
    2.6620    0.0846    0.6727 H   0  0  0  0  0  0  0  0  0  0  0  0
    2.7214   -1.2415   -0.5450 H   0  0  0  0  0  0  0  0  0  0  0  0
  1  9  1  0  0  0  0
  1 10  1  0  0  0  0
  2  9  2  0  0  0  0
  3  4  2  0  0  0  0
  3  5  1  0  0  0  0
  3  9  1  0  0  0  0
  4  6  1  0  0  0  0
  4 11  1  0  0  0  0
  5  7  2  0  0  0  0
  5 12  1  0  0  0  0
  6  8  2  0  0  0  0
  6 13  1  0  0  0  0
  7  8  1  0  0  0  0
  7 14  1  0  0  0  0
  8 15  1  0  0  0  0
 10 16  1  0  0  0  0
 10 17  1  0  0  0  0
 10 18  1  0  0  0  0
M  END
> <PUBCHEM_COMPOUND_CID>
7150

> <PUBCHEM_COMPOUND_CANONICALIZED>
1

> <PUBCHEM_CACTVS_COMPLEXITY>
114

> <PUBCHEM_CACTVS_HBOND_ACCEPTOR>
2

> <PUBCHEM_CACTVS_HBOND_DONOR>
0

> <PUBCHEM_CACTVS_ROTATABLE_BOND>
2

> <PUBCHEM_CACTVS_SUBSKEYS>
AAADccBwMAAAAAAAAAAAAAAAAAAAAAAAAAAwAAAAAAAAAAABAAAAGgAAAAAADACAmAIyCIAABACIAiDSCAACAAAkAAAIiAEACMgIJjKANRiAMQAkwAEIqYeIyCCOAAAAAAAAAAAAAAAAAAAAAAAAAAAAAA==

> <PUBCHEM_IUPAC_OPENEYE_NAME>
methyl benzoate

> <PUBCHEM_IUPAC_CAS_NAME>
benzoic acid methyl ester

> <PUBCHEM_IUPAC_NAME>
methyl benzoate

> <PUBCHEM_IUPAC_SYSTEMATIC_NAME>
methyl benzoate

> <PUBCHEM_IUPAC_TRADITIONAL_NAME>
benzoic acid methyl ester

> <PUBCHEM_IUPAC_INCHI>
InChI=1S/C8H8O2/c1-10-8(9)7-5-3-2-4-6-7/h2-6H,1H3

> <PUBCHEM_IUPAC_INCHIKEY>
QPJVMBTYPHYUOC-UHFFFAOYSA-N

> <PUBCHEM_XLOGP3>
2.1

> <PUBCHEM_EXACT_MASS>
136.052

> <PUBCHEM_MOLECULAR_FORMULA>
C8H8O2

> <PUBCHEM_MOLECULAR_WEIGHT>
136.15

> <PUBCHEM_OPENEYE_CAN_SMILES>
COC(=O)C1=CC=CC=C1

> <PUBCHEM_OPENEYE_ISO_SMILES>
COC(=O)C1=CC=CC=C1

> <PUBCHEM_CACTVS_TPSA>
26.3

> <PUBCHEM_MONOISOTOPIC_WEIGHT>
136.052

> <PUBCHEM_TOTAL_CHARGE>
0

> <PUBCHEM_HEAVY_ATOM_COUNT>
10

> <PUBCHEM_ATOM_DEF_STEREO_COUNT>
0

> <PUBCHEM_ATOM_UDEF_STEREO_COUNT>
0

> <PUBCHEM_BOND_DEF_STEREO_COUNT>
0

> <PUBCHEM_BOND_UDEF_STEREO_COUNT>
0

> <PUBCHEM_ISOTOPIC_ATOM_COUNT>
0

> <PUBCHEM_COMPONENT_COUNT>
1

> <PUBCHEM_CACTVS_TAUTO_COUNT>
-1

> <PUBCHEM_COORDINATE_TYPE>
1 __ 5 __ 255

> <PUBCHEM_BONDANNOTATIONS>
3  4  8 __ 3  5  8 __ 4  6  8 __ 5  7  8 __ 6  8  8 __ 7  8  8

$$$$
637520
 OpenBabel02201912233D

 22 22  0  0  0  0  0  0  0  0999 V2000
    0.9324   -0.0789    0.0309 O   0  0  0  0  0  0  0  0  0  0  0  0
    1.0140    0.9820    2.0666 O   0  0  0  0  0  0  0  0  0  0  0  0
   -3.3026    0.0172    0.0872 C   0  0  0  0  0  0  0  0  0  0  0  0
   -3.9445   -0.0071   -1.1586 C   0  0  0  0  0  0  0  0  0  0  0  0
   -4.0910    0.0746    1.2449 C   0  0  0  0  0  0  0  0  0  0  0  0
   -1.8315   -0.0482    0.1259 C   0  0  0  0  0  0  0  0  0  0  0  0
   -5.3383    0.0645   -1.2466 C   0  0  0  0  0  0  0  0  0  0  0  0
   -5.4843    0.1491    1.1570 C   0  0  0  0  0  0  0  0  0  0  0  0
   -6.1069    0.1504   -0.0884 C   0  0  0  0  0  0  0  0  0  0  0  0
   -1.0838    0.5019    1.0952 C   0  0  0  0  0  0  0  0  0  0  0  0
    0.3928    0.4947    1.1334 C   0  0  0  0  0  0  0  0  0  0  0  0
    2.3599   -0.0555    0.0148 C   0  0  0  0  0  0  0  0  0  0  0  0
   -3.3662   -0.0688   -2.0778 H   0  0  0  0  0  0  0  0  0  0  0  0
   -3.6377    0.0586    2.2327 H   0  0  0  0  0  0  0  0  0  0  0  0
   -1.3596   -0.5480   -0.7172 H   0  0  0  0  0  0  0  0  0  0  0  0
   -5.8216    0.0578   -2.2201 H   0  0  0  0  0  0  0  0  0  0  0  0
   -6.0819    0.2060    2.0634 H   0  0  0  0  0  0  0  0  0  0  0  0
   -7.1898    0.2140   -0.1560 H   0  0  0  0  0  0  0  0  0  0  0  0
   -1.5257    1.0267    1.9351 H   0  0  0  0  0  0  0  0  0  0  0  0
    2.6980   -0.5439   -0.9036 H   0  0  0  0  0  0  0  0  0  0  0  0
    2.7250    0.9765    0.0116 H   0  0  0  0  0  0  0  0  0  0  0  0
    2.7646   -0.6067    0.8695 H   0  0  0  0  0  0  0  0  0  0  0  0
  1 11  1  0  0  0  0
  1 12  1  0  0  0  0
  2 11  2  0  0  0  0
  3  4  2  0  0  0  0
  3  5  1  0  0  0  0
  3  6  1  0  0  0  0
  4  7  1  0  0  0  0
  4 13  1  0  0  0  0
  5  8  2  0  0  0  0
  5 14  1  0  0  0  0
  6 10  2  0  0  0  0
  6 15  1  0  0  0  0
  7  9  2  0  0  0  0
  7 16  1  0  0  0  0
  8  9  1  0  0  0  0
  8 17  1  0  0  0  0
  9 18  1  0  0  0  0
 10 11  1  0  0  0  0
 10 19  1  0  0  0  0
 12 20  1  0  0  0  0
 12 21  1  0  0  0  0
 12 22  1  0  0  0  0
M  END
> <PUBCHEM_COMPOUND_CID>
637520

> <PUBCHEM_COMPOUND_CANONICALIZED>
1

> <PUBCHEM_CACTVS_COMPLEXITY>
167

> <PUBCHEM_CACTVS_HBOND_ACCEPTOR>
2

> <PUBCHEM_CACTVS_HBOND_DONOR>
0

> <PUBCHEM_CACTVS_ROTATABLE_BOND>
3

> <PUBCHEM_CACTVS_SUBSKEYS>
AAADccBwMAAAAAAAAAAAAAAAAAAAAAAAAAAwAAAAAAAAAAABAAAAGgAAAAAADACAmAIyCIAABACIAiDSCAACAAAgAAAIiAAAAMgIJCKAMRCAMAAggAAIqYcAgAAOAAAAAAAAAAAAAAAAAAAAAAAAAAAAAA==

> <PUBCHEM_IUPAC_OPENEYE_NAME>
methyl (~{E})-3-phenylprop-2-enoate

> <PUBCHEM_IUPAC_CAS_NAME>
(~{E})-3-phenyl-2-propenoic acid methyl ester

> <PUBCHEM_IUPAC_NAME>
methyl (~{E})-3-phenylprop-2-enoate

> <PUBCHEM_IUPAC_SYSTEMATIC_NAME>
methyl (~{E})-3-phenylprop-2-enoate

> <PUBCHEM_IUPAC_TRADITIONAL_NAME>
(~{E})-3-phenylacrylic acid methyl ester

> <PUBCHEM_IUPAC_INCHI>
InChI=1S/C10H10O2/c1-12-10(11)8-7-9-5-3-2-4-6-9/h2-8H,1H3/b8-7+

> <PUBCHEM_IUPAC_INCHIKEY>
CCRCUPLGCSFEDV-BQYQJAHWSA-N

> <PUBCHEM_XLOGP3>
2.6

> <PUBCHEM_EXACT_MASS>
162.068

> <PUBCHEM_MOLECULAR_FORMULA>
C10H10O2

> <PUBCHEM_MOLECULAR_WEIGHT>
162.188

> <PUBCHEM_OPENEYE_CAN_SMILES>
COC(=O)C=CC1=CC=CC=C1

> <PUBCHEM_OPENEYE_ISO_SMILES>
COC(=O)/C=C/C1=CC=CC=C1

> <PUBCHEM_CACTVS_TPSA>
26.3

> <PUBCHEM_MONOISOTOPIC_WEIGHT>
162.068

> <PUBCHEM_TOTAL_CHARGE>
0

> <PUBCHEM_HEAVY_ATOM_COUNT>
12

> <PUBCHEM_ATOM_DEF_STEREO_COUNT>
0

> <PUBCHEM_ATOM_UDEF_STEREO_COUNT>
0

> <PUBCHEM_BOND_DEF_STEREO_COUNT>
1

> <PUBCHEM_BOND_UDEF_STEREO_COUNT>
0

> <PUBCHEM_ISOTOPIC_ATOM_COUNT>
0

> <PUBCHEM_COMPONENT_COUNT>
1

> <PUBCHEM_CACTVS_TAUTO_COUNT>
-1

> <PUBCHEM_COORDINATE_TYPE>
1 __ 5 __ 255

> <PUBCHEM_BONDANNOTATIONS>
3  4  8 __ 3  5  8 __ 4  7  8 __ 5  8  8 __ 7  9  8 __ 8  9  8

$$$$
4133
 OpenBabel02201912233D

 19 19  0  0  0  0  0  0  0  0999 V2000
    0.8727    1.7750    0.5081 O   0  0  0  0  0  0  0  0  0  0  0  0
   -1.1640   -0.3067   -2.5722 O   0  0  0  0  0  0  0  0  0  0  0  0
    1.0594    0.5907   -1.4576 O   0  0  0  0  0  0  0  0  0  0  0  0
   -1.0875    1.0183   -0.5204 C   0  0  0  0  0  0  0  0  0  0  0  0
   -1.7797    0.3205   -1.5209 C   0  0  0  0  0  0  0  0  0  0  0  0
   -1.8189    1.6301    0.5110 C   0  0  0  0  0  0  0  0  0  0  0  0
   -3.1715    0.2316   -1.4877 C   0  0  0  0  0  0  0  0  0  0  0  0
   -3.2121    1.5395    0.5418 C   0  0  0  0  0  0  0  0  0  0  0  0
   -3.8870    0.8398   -0.4562 C   0  0  0  0  0  0  0  0  0  0  0  0
    0.3957    1.0957   -0.5623 C   0  0  0  0  0  0  0  0  0  0  0  0
    2.2943    1.8835    0.5693 C   0  0  0  0  0  0  0  0  0  0  0  0
   -1.3170    2.1819    1.3023 H   0  0  0  0  0  0  0  0  0  0  0  0
   -3.6980   -0.3132   -2.2673 H   0  0  0  0  0  0  0  0  0  0  0  0
   -3.7687    2.0146    1.3462 H   0  0  0  0  0  0  0  0  0  0  0  0
   -4.9716    0.7672   -0.4316 H   0  0  0  0  0  0  0  0  0  0  0  0
   -0.1942   -0.1716   -2.4958 H   0  0  0  0  0  0  0  0  0  0  0  0
    2.5464    2.4409    1.4760 H   0  0  0  0  0  0  0  0  0  0  0  0
    2.7519    0.8919    0.6337 H   0  0  0  0  0  0  0  0  0  0  0  0
    2.6742    2.4362   -0.2948 H   0  0  0  0  0  0  0  0  0  0  0  0
  1 10  1  0  0  0  0
  1 11  1  0  0  0  0
  2  5  1  0  0  0  0
  2 16  1  0  0  0  0
  3 10  2  0  0  0  0
  4  5  1  0  0  0  0
  4  6  2  0  0  0  0
  4 10  1  0  0  0  0
  5  7  2  0  0  0  0
  6  8  1  0  0  0  0
  6 12  1  0  0  0  0
  7  9  1  0  0  0  0
  7 13  1  0  0  0  0
  8  9  2  0  0  0  0
  8 14  1  0  0  0  0
  9 15  1  0  0  0  0
 11 17  1  0  0  0  0
 11 18  1  0  0  0  0
 11 19  1  0  0  0  0
M  END
> <PUBCHEM_COMPOUND_CID>
4133

> <PUBCHEM_COMPOUND_CANONICALIZED>
1

> <PUBCHEM_CACTVS_COMPLEXITY>
144

> <PUBCHEM_CACTVS_HBOND_ACCEPTOR>
3

> <PUBCHEM_CACTVS_HBOND_DONOR>
1

> <PUBCHEM_CACTVS_ROTATABLE_BOND>
2

> <PUBCHEM_CACTVS_SUBSKEYS>
AAADccBwMAAAAAAAAAAAAAAAAAAAAAAAAAAwAAAAAAAAAAABAAAAGgAACAAADASAmAIyDoAABgCIAiDSCAACAAAkIAAIiAEGCMgIJzaCNRqAcUAl4BEIuYeIyCCOAAAAAAAIAAAAAAAAABAAAAAAAAAAAA==

> <PUBCHEM_IUPAC_OPENEYE_NAME>
methyl 2-hydroxybenzoate

> <PUBCHEM_IUPAC_CAS_NAME>
2-hydroxybenzoic acid methyl ester

> <PUBCHEM_IUPAC_NAME>
methyl 2-hydroxybenzoate

> <PUBCHEM_IUPAC_SYSTEMATIC_NAME>
methyl 2-oxidanylbenzoate

> <PUBCHEM_IUPAC_TRADITIONAL_NAME>
2-hydroxybenzoic acid methyl ester

> <PUBCHEM_IUPAC_INCHI>
InChI=1S/C8H8O3/c1-11-8(10)6-4-2-3-5-7(6)9/h2-5,9H,1H3

> <PUBCHEM_IUPAC_INCHIKEY>
OSWPMRLSEDHDFF-UHFFFAOYSA-N

> <PUBCHEM_XLOGP3>
2.3

> <PUBCHEM_EXACT_MASS>
152.047

> <PUBCHEM_MOLECULAR_FORMULA>
C8H8O3

> <PUBCHEM_MOLECULAR_WEIGHT>
152.149

> <PUBCHEM_OPENEYE_CAN_SMILES>
COC(=O)C1=CC=CC=C1O

> <PUBCHEM_OPENEYE_ISO_SMILES>
COC(=O)C1=CC=CC=C1O

> <PUBCHEM_CACTVS_TPSA>
46.5

> <PUBCHEM_MONOISOTOPIC_WEIGHT>
152.047

> <PUBCHEM_TOTAL_CHARGE>
0

> <PUBCHEM_HEAVY_ATOM_COUNT>
11

> <PUBCHEM_ATOM_DEF_STEREO_COUNT>
0

> <PUBCHEM_ATOM_UDEF_STEREO_COUNT>
0

> <PUBCHEM_BOND_DEF_STEREO_COUNT>
0

> <PUBCHEM_BOND_UDEF_STEREO_COUNT>
0

> <PUBCHEM_ISOTOPIC_ATOM_COUNT>
0

> <PUBCHEM_COMPONENT_COUNT>
1

> <PUBCHEM_CACTVS_TAUTO_COUNT>
4

> <PUBCHEM_COORDINATE_TYPE>
1 __ 5 __ 255

> <PUBCHEM_BONDANNOTATIONS>
4  5  8 __ 4  6  8 __ 5  7  8 __ 6  8  8 __ 7  9  8 __ 8  9  8

$$$$
31244_2
 OpenBabel02201912233D

 18 18  0  0  0  0  0  0  0  0999 V2000
    0.9564   -0.0980    0.1392 O   0  0  0  0  0  0  0  0  0  0  0  0
   -1.2204   -6.1099    0.3634 O   0  0  0  0  0  0  0  0  0  0  0  0
    0.3919   -1.3410    0.2152 C   0  0  0  0  0  0  0  0  0  0  0  0
   -1.0229   -3.7510    0.3668 C   0  0  0  0  0  0  0  0  0  0  0  0
    1.0738   -2.5579    0.1524 C   0  0  0  0  0  0  0  0  0  0  0  0
   -0.9992   -1.3404    0.3664 C   0  0  0  0  0  0  0  0  0  0  0  0
    0.3672   -3.7627    0.2260 C   0  0  0  0  0  0  0  0  0  0  0  0
   -1.7115   -2.5399    0.4424 C   0  0  0  0  0  0  0  0  0  0  0  0
   -1.7747   -5.0199    0.4313 C   0  0  0  0  0  0  0  0  0  0  0  0
    2.3633   -0.0413   -0.0625 C   0  0  0  0  0  0  0  0  0  0  0  0
    2.1526   -2.6062    0.0443 H   0  0  0  0  0  0  0  0  0  0  0  0
   -1.5310   -0.3927    0.4213 H   0  0  0  0  0  0  0  0  0  0  0  0
    0.9037   -4.7080    0.1703 H   0  0  0  0  0  0  0  0  0  0  0  0
   -2.7917   -2.5117    0.5561 H   0  0  0  0  0  0  0  0  0  0  0  0
   -2.8689   -4.9389    0.5406 H   0  0  0  0  0  0  0  0  0  0  0  0
    2.6423    1.0106   -0.1773 H   0  0  0  0  0  0  0  0  0  0  0  0
    2.8977   -0.4375    0.8072 H   0  0  0  0  0  0  0  0  0  0  0  0
    2.6576   -0.5628   -0.9795 H   0  0  0  0  0  0  0  0  0  0  0  0
  1  3  1  0  0  0  0
  1 10  1  0  0  0  0
  2  9  2  0  0  0  0
  3  5  2  0  0  0  0
  3  6  1  0  0  0  0
  4  7  2  0  0  0  0
  4  8  1  0  0  0  0
  4  9  1  0  0  0  0
  5  7  1  0  0  0  0
  5 11  1  0  0  0  0
  6  8  2  0  0  0  0
  6 12  1  0  0  0  0
  7 13  1  0  0  0  0
  8 14  1  0  0  0  0
  9 15  1  0  0  0  0
 10 16  1  0  0  0  0
 10 17  1  0  0  0  0
 10 18  1  0  0  0  0
M  END
> <PUBCHEM_COMPOUND_CID>
31244

> <PUBCHEM_COMPOUND_CANONICALIZED>
1

> <PUBCHEM_CACTVS_COMPLEXITY>
104

> <PUBCHEM_CACTVS_HBOND_ACCEPTOR>
2

> <PUBCHEM_CACTVS_HBOND_DONOR>
0

> <PUBCHEM_CACTVS_ROTATABLE_BOND>
2

> <PUBCHEM_CACTVS_SUBSKEYS>
AAADccBwMAAAAAAAAAAAAAAAAAAAAAAAAAAwAAAAAAAAAAABAAAAGgAAAAAADASgmAIyBoAABACIAihSgAACCAAkIAAIiAEGCMgMJjKENRqAMSAkwBEIqYeIzADOIAAAAAAAAABAAAAAAAAAAAAAAAAAAA==

> <PUBCHEM_IUPAC_OPENEYE_NAME>
4-methoxybenzaldehyde

> <PUBCHEM_IUPAC_CAS_NAME>
4-methoxybenzaldehyde

> <PUBCHEM_IUPAC_NAME>
4-methoxybenzaldehyde

> <PUBCHEM_IUPAC_SYSTEMATIC_NAME>
4-methoxybenzaldehyde

> <PUBCHEM_IUPAC_TRADITIONAL_NAME>
4-methoxybenzaldehyde

> <PUBCHEM_IUPAC_INCHI>
InChI=1S/C8H8O2/c1-10-8-4-2-7(6-9)3-5-8/h2-6H,1H3

> <PUBCHEM_IUPAC_INCHIKEY>
ZRSNZINYAWTAHE-UHFFFAOYSA-N

> <PUBCHEM_XLOGP3>
1.8

> <PUBCHEM_EXACT_MASS>
136.052

> <PUBCHEM_MOLECULAR_FORMULA>
C8H8O2

> <PUBCHEM_MOLECULAR_WEIGHT>
136.15

> <PUBCHEM_OPENEYE_CAN_SMILES>
COC1=CC=C(C=C1)C=O

> <PUBCHEM_OPENEYE_ISO_SMILES>
COC1=CC=C(C=C1)C=O

> <PUBCHEM_CACTVS_TPSA>
26.3

> <PUBCHEM_MONOISOTOPIC_WEIGHT>
136.052

> <PUBCHEM_TOTAL_CHARGE>
0

> <PUBCHEM_HEAVY_ATOM_COUNT>
10

> <PUBCHEM_ATOM_DEF_STEREO_COUNT>
0

> <PUBCHEM_ATOM_UDEF_STEREO_COUNT>
0

> <PUBCHEM_BOND_DEF_STEREO_COUNT>
0

> <PUBCHEM_BOND_UDEF_STEREO_COUNT>
0

> <PUBCHEM_ISOTOPIC_ATOM_COUNT>
0

> <PUBCHEM_COMPONENT_COUNT>
1

> <PUBCHEM_CACTVS_TAUTO_COUNT>
-1

> <PUBCHEM_COORDINATE_TYPE>
1 __ 5 __ 255

> <PUBCHEM_BONDANNOTATIONS>
3  5  8 __ 3  6  8 __ 4  7  8 __ 4  8  8 __ 5  7  8 __ 6  8  8

$$$$
7169
 OpenBabel02201912233D

 25 26  0  0  0  0  0  0  0  0999 V2000
    1.0243   -0.2530    0.0855 O   0  0  0  0  0  0  0  0  0  0  0  0
    2.9559    0.3187   -1.0934 O   0  0  0  0  0  0  0  0  0  0  0  0
    3.0871   -0.2319    1.2250 C   0  0  0  0  0  0  0  0  0  0  0  0
    0.2955   -0.5069   -1.0883 C   0  0  0  0  0  0  0  0  0  0  0  0
    4.4851   -0.1149    1.2347 C   0  0  0  0  0  0  0  0  0  0  0  0
    2.4231   -0.6128    2.3994 C   0  0  0  0  0  0  0  0  0  0  0  0
    2.3774    0.0013   -0.0639 C   0  0  0  0  0  0  0  0  0  0  0  0
    0.7411   -1.4438   -2.0222 C   0  0  0  0  0  0  0  0  0  0  0  0
   -0.9511    0.1026   -1.2274 C   0  0  0  0  0  0  0  0  0  0  0  0
    5.2090   -0.3810    2.3985 C   0  0  0  0  0  0  0  0  0  0  0  0
    3.1518   -0.8777    3.5624 C   0  0  0  0  0  0  0  0  0  0  0  0
    4.5419   -0.7640    3.5605 C   0  0  0  0  0  0  0  0  0  0  0  0
   -0.0538   -1.7481   -3.1254 C   0  0  0  0  0  0  0  0  0  0  0  0
   -1.7460   -0.2112   -2.3322 C   0  0  0  0  0  0  0  0  0  0  0  0
   -1.2960   -1.1331   -3.2802 C   0  0  0  0  0  0  0  0  0  0  0  0
    5.0185    0.1712    0.3295 H   0  0  0  0  0  0  0  0  0  0  0  0
    1.3419   -0.7220    2.4259 H   0  0  0  0  0  0  0  0  0  0  0  0
    1.7011   -1.9370   -1.9009 H   0  0  0  0  0  0  0  0  0  0  0  0
   -1.3078    0.8073   -0.4831 H   0  0  0  0  0  0  0  0  0  0  0  0
    6.2932   -0.2971    2.3946 H   0  0  0  0  0  0  0  0  0  0  0  0
    2.6349   -1.1818    4.4697 H   0  0  0  0  0  0  0  0  0  0  0  0
    5.1065   -0.9785    4.4648 H   0  0  0  0  0  0  0  0  0  0  0  0
    0.2960   -2.4682   -3.8605 H   0  0  0  0  0  0  0  0  0  0  0  0
   -2.7202    0.2555   -2.4532 H   0  0  0  0  0  0  0  0  0  0  0  0
   -1.9168   -1.3793   -4.1381 H   0  0  0  0  0  0  0  0  0  0  0  0
  1  4  1  0  0  0  0
  1  7  1  0  0  0  0
  2  7  2  0  0  0  0
  3  5  2  0  0  0  0
  3  6  1  0  0  0  0
  3  7  1  0  0  0  0
  4  8  2  0  0  0  0
  4  9  1  0  0  0  0
  5 10  1  0  0  0  0
  5 16  1  0  0  0  0
  6 11  2  0  0  0  0
  6 17  1  0  0  0  0
  8 13  1  0  0  0  0
  8 18  1  0  0  0  0
  9 14  2  0  0  0  0
  9 19  1  0  0  0  0
 10 12  2  0  0  0  0
 10 20  1  0  0  0  0
 11 12  1  0  0  0  0
 11 21  1  0  0  0  0
 12 22  1  0  0  0  0
 13 15  2  0  0  0  0
 13 23  1  0  0  0  0
 14 15  1  0  0  0  0
 14 24  1  0  0  0  0
 15 25  1  0  0  0  0
M  END
> <PUBCHEM_COMPOUND_CID>
7169

> <PUBCHEM_COMPOUND_CANONICALIZED>
1

> <PUBCHEM_CACTVS_COMPLEXITY>
201

> <PUBCHEM_CACTVS_HBOND_ACCEPTOR>
2

> <PUBCHEM_CACTVS_HBOND_DONOR>
0

> <PUBCHEM_CACTVS_ROTATABLE_BOND>
3

> <PUBCHEM_CACTVS_SUBSKEYS>
AAADccBwMAAAAAAAAAAAAAAAAAAAAAAAAAAwYAAAAAAAAAABQAAAGgAAAAAADASAmAAwDoAABACIAiDSCAACCAAkIAAIiAEGCMgMJjKENRqCOyCkwBEIqYeIyCCOAAAAAAAAAAAAAAAAAAAAAAAAAAAAAA==

> <PUBCHEM_IUPAC_OPENEYE_NAME>
phenyl benzoate

> <PUBCHEM_IUPAC_CAS_NAME>
benzoic acid phenyl ester

> <PUBCHEM_IUPAC_NAME>
phenyl benzoate

> <PUBCHEM_IUPAC_SYSTEMATIC_NAME>
phenyl benzoate

> <PUBCHEM_IUPAC_TRADITIONAL_NAME>
benzoic acid phenyl ester

> <PUBCHEM_IUPAC_INCHI>
InChI=1S/C13H10O2/c14-13(11-7-3-1-4-8-11)15-12-9-5-2-6-10-12/h1-10H

> <PUBCHEM_IUPAC_INCHIKEY>
FCJSHPDYVMKCHI-UHFFFAOYSA-N

> <PUBCHEM_XLOGP3>
3.6

> <PUBCHEM_EXACT_MASS>
198.068

> <PUBCHEM_MOLECULAR_FORMULA>
C13H10O2

> <PUBCHEM_MOLECULAR_WEIGHT>
198.221

> <PUBCHEM_OPENEYE_CAN_SMILES>
C1=CC=C(C=C1)C(=O)OC2=CC=CC=C2

> <PUBCHEM_OPENEYE_ISO_SMILES>
C1=CC=C(C=C1)C(=O)OC2=CC=CC=C2

> <PUBCHEM_CACTVS_TPSA>
26.3

> <PUBCHEM_MONOISOTOPIC_WEIGHT>
198.068

> <PUBCHEM_TOTAL_CHARGE>
0

> <PUBCHEM_HEAVY_ATOM_COUNT>
15

> <PUBCHEM_ATOM_DEF_STEREO_COUNT>
0

> <PUBCHEM_ATOM_UDEF_STEREO_COUNT>
0

> <PUBCHEM_BOND_DEF_STEREO_COUNT>
0

> <PUBCHEM_BOND_UDEF_STEREO_COUNT>
0

> <PUBCHEM_ISOTOPIC_ATOM_COUNT>
0

> <PUBCHEM_COMPONENT_COUNT>
1

> <PUBCHEM_CACTVS_TAUTO_COUNT>
-1

> <PUBCHEM_COORDINATE_TYPE>
1 __ 5 __ 255

> <PUBCHEM_BONDANNOTATIONS>
10  12  8 __ 11  12  8 __ 13  15  8 __ 14  15  8 __ 3  5  8 __ 3  6  8 __ 4  8  8 __ 4  9  8 __ 5  10  8 __ 6  11  8 __ 8  13  8 __ 9  14  8

$$$$
7043
 OpenBabel02201912233D

 20 20  0  0  0  0  0  0  0  0999 V2000
    0.9075    0.1414   -0.0441 O   0  0  0  0  0  0  0  0  0  0  0  0
    0.0971   -1.8858   -1.5432 O   0  0  0  0  0  0  0  0  0  0  0  0
   -0.0910   -0.6267   -2.0581 C   0  0  0  0  0  0  0  0  0  0  0  0
    0.3609    0.4482   -1.2673 C   0  0  0  0  0  0  0  0  0  0  0  0
   -0.6781   -0.3613   -3.3012 C   0  0  0  0  0  0  0  0  0  0  0  0
    0.1906    1.7625   -1.7190 C   0  0  0  0  0  0  0  0  0  0  0  0
   -0.8245    0.9529   -3.7513 C   0  0  0  0  0  0  0  0  0  0  0  0
   -0.3945    2.0130   -2.9596 C   0  0  0  0  0  0  0  0  0  0  0  0
    1.9075    1.0392    0.4243 C   0  0  0  0  0  0  0  0  0  0  0  0
   -0.3537   -2.9843   -2.3240 C   0  0  0  0  0  0  0  0  0  0  0  0
   -1.0346   -1.1563   -3.9471 H   0  0  0  0  0  0  0  0  0  0  0  0
    0.4861    2.6129   -1.1139 H   0  0  0  0  0  0  0  0  0  0  0  0
   -0.5213    3.0361   -3.3037 H   0  0  0  0  0  0  0  0  0  0  0  0
   -1.2799    1.1477   -4.7184 H   0  0  0  0  0  0  0  0  0  0  0  0
   -1.4401   -2.9525   -2.4593 H   0  0  0  0  0  0  0  0  0  0  0  0
    0.1640   -3.0248   -3.2883 H   0  0  0  0  0  0  0  0  0  0  0  0
    2.3523    0.6058    1.3251 H   0  0  0  0  0  0  0  0  0  0  0  0
    2.7039    1.1660   -0.3173 H   0  0  0  0  0  0  0  0  0  0  0  0
    1.4791    2.0051    0.7095 H   0  0  0  0  0  0  0  0  0  0  0  0
   -0.1130   -3.9041   -1.7824 H   0  0  0  0  0  0  0  0  0  0  0  0
  1  4  1  0  0  0  0
  1  9  1  0  0  0  0
  2  3  1  0  0  0  0
  2 10  1  0  0  0  0
  3  4  1  0  0  0  0
  3  5  2  0  0  0  0
  4  6  2  0  0  0  0
  5  7  1  0  0  0  0
  5 11  1  0  0  0  0
  6  8  1  0  0  0  0
  6 12  1  0  0  0  0
  7  8  2  0  0  0  0
  7 14  1  0  0  0  0
  8 13  1  0  0  0  0
  9 17  1  0  0  0  0
  9 18  1  0  0  0  0
  9 19  1  0  0  0  0
 10 15  1  0  0  0  0
 10 16  1  0  0  0  0
 10 20  1  0  0  0  0
M  END
> <PUBCHEM_COMPOUND_CID>
7043

> <PUBCHEM_COMPOUND_CANONICALIZED>
1

> <PUBCHEM_CACTVS_COMPLEXITY>
81.3

> <PUBCHEM_CACTVS_HBOND_ACCEPTOR>
2

> <PUBCHEM_CACTVS_HBOND_DONOR>
0

> <PUBCHEM_CACTVS_ROTATABLE_BOND>
2

> <PUBCHEM_CACTVS_SUBSKEYS>
AAADccBwMAAAAAAAAAAAAAAAAAAAAAAAAAAwAAAAAAAAAAABAAAAGgAAAAAACASAkAIyBoAABACAACBCAAACCAAgIAAIiAAGiIgNJiKEMRqAMCIkwBEKqAeAQAAAAAAAAAAAQAAAAAAAAACAAAAAAAAAAA==

> <PUBCHEM_IUPAC_OPENEYE_NAME>
1,2-dimethoxybenzene

> <PUBCHEM_IUPAC_CAS_NAME>
1,2-dimethoxybenzene

> <PUBCHEM_IUPAC_NAME>
1,2-dimethoxybenzene

> <PUBCHEM_IUPAC_SYSTEMATIC_NAME>
1,2-dimethoxybenzene

> <PUBCHEM_IUPAC_TRADITIONAL_NAME>
veratrole

> <PUBCHEM_IUPAC_INCHI>
InChI=1S/C8H10O2/c1-9-7-5-3-4-6-8(7)10-2/h3-6H,1-2H3

> <PUBCHEM_IUPAC_INCHIKEY>
ABDKAPXRBAPSQN-UHFFFAOYSA-N

> <PUBCHEM_XLOGP3>
1.6

> <PUBCHEM_EXACT_MASS>
138.068

> <PUBCHEM_MOLECULAR_FORMULA>
C8H10O2

> <PUBCHEM_MOLECULAR_WEIGHT>
138.166

> <PUBCHEM_OPENEYE_CAN_SMILES>
COC1=CC=CC=C1OC

> <PUBCHEM_OPENEYE_ISO_SMILES>
COC1=CC=CC=C1OC

> <PUBCHEM_CACTVS_TPSA>
18.5

> <PUBCHEM_MONOISOTOPIC_WEIGHT>
138.068

> <PUBCHEM_TOTAL_CHARGE>
0

> <PUBCHEM_HEAVY_ATOM_COUNT>
10

> <PUBCHEM_ATOM_DEF_STEREO_COUNT>
0

> <PUBCHEM_ATOM_UDEF_STEREO_COUNT>
0

> <PUBCHEM_BOND_DEF_STEREO_COUNT>
0

> <PUBCHEM_BOND_UDEF_STEREO_COUNT>
0

> <PUBCHEM_ISOTOPIC_ATOM_COUNT>
0

> <PUBCHEM_COMPONENT_COUNT>
1

> <PUBCHEM_CACTVS_TAUTO_COUNT>
-1

> <PUBCHEM_COORDINATE_TYPE>
1 __ 5 __ 255

> <PUBCHEM_BONDANNOTATIONS>
3  4  8 __ 3  5  8 __ 4  6  8 __ 5  7  8 __ 6  8  8 __ 7  8  8

$$$$
8181
 OpenBabel02201912233D

 53 52  0  0  0  0  0  0  0  0999 V2000
   -3.8470    4.0285   -3.0259 O   0  0  0  0  0  0  0  0  0  0  0  0
   -3.9710    3.2326   -5.1758 O   0  0  0  0  0  0  0  0  0  0  0  0
   -3.7724   -4.2917    1.6586 C   0  0  0  0  0  0  0  0  0  0  0  0
   -3.2664   -4.0363    0.2384 C   0  0  0  0  0  0  0  0  0  0  0  0
   -3.2861   -5.6425    2.1841 C   0  0  0  0  0  0  0  0  0  0  0  0
   -3.7532   -2.6851   -0.2856 C   0  0  0  0  0  0  0  0  0  0  0  0
   -3.7956   -5.9037    3.6022 C   0  0  0  0  0  0  0  0  0  0  0  0
   -3.2533   -2.4247   -1.7076 C   0  0  0  0  0  0  0  0  0  0  0  0
   -3.3085   -7.2554    4.1258 C   0  0  0  0  0  0  0  0  0  0  0  0
   -3.7280   -1.0607   -2.2092 C   0  0  0  0  0  0  0  0  0  0  0  0
   -3.8164   -7.5207    5.5440 C   0  0  0  0  0  0  0  0  0  0  0  0
   -3.2137   -0.7695   -3.6197 C   0  0  0  0  0  0  0  0  0  0  0  0
   -3.3264   -8.8733    6.0635 C   0  0  0  0  0  0  0  0  0  0  0  0
   -3.7110    0.5655   -4.1817 C   0  0  0  0  0  0  0  0  0  0  0  0
   -3.8236   -9.1400    7.4839 C   0  0  0  0  0  0  0  0  0  0  0  0
   -3.2639    1.7787   -3.3659 C   0  0  0  0  0  0  0  0  0  0  0  0
   -3.3360  -10.4847    7.9999 C   0  0  0  0  0  0  0  0  0  0  0  0
   -3.7380    3.0690   -3.9871 C   0  0  0  0  0  0  0  0  0  0  0  0
   -4.2997    5.2939   -3.5088 C   0  0  0  0  0  0  0  0  0  0  0  0
   -3.4237   -3.4915    2.3229 H   0  0  0  0  0  0  0  0  0  0  0  0
   -4.8687   -4.2657    1.6689 H   0  0  0  0  0  0  0  0  0  0  0  0
   -3.6161   -4.8354   -0.4273 H   0  0  0  0  0  0  0  0  0  0  0  0
   -2.1712   -4.0605    0.2276 H   0  0  0  0  0  0  0  0  0  0  0  0
   -3.6309   -6.4416    1.5166 H   0  0  0  0  0  0  0  0  0  0  0  0
   -2.1895   -5.6659    2.1770 H   0  0  0  0  0  0  0  0  0  0  0  0
   -3.4011   -1.8863    0.3795 H   0  0  0  0  0  0  0  0  0  0  0  0
   -4.8494   -2.6564   -0.2715 H   0  0  0  0  0  0  0  0  0  0  0  0
   -3.4507   -5.1045    4.2696 H   0  0  0  0  0  0  0  0  0  0  0  0
   -4.8921   -5.8801    3.6088 H   0  0  0  0  0  0  0  0  0  0  0  0
   -3.6151   -3.2132   -2.3779 H   0  0  0  0  0  0  0  0  0  0  0  0
   -2.1572   -2.4610   -1.7245 H   0  0  0  0  0  0  0  0  0  0  0  0
   -3.6527   -8.0537    3.4569 H   0  0  0  0  0  0  0  0  0  0  0  0
   -2.2119   -7.2779    4.1184 H   0  0  0  0  0  0  0  0  0  0  0  0
   -3.3736   -0.2923   -1.5139 H   0  0  0  0  0  0  0  0  0  0  0  0
   -4.8241   -1.0258   -2.2031 H   0  0  0  0  0  0  0  0  0  0  0  0
   -3.4718   -6.7227    6.2129 H   0  0  0  0  0  0  0  0  0  0  0  0
   -4.9130   -7.4988    5.5521 H   0  0  0  0  0  0  0  0  0  0  0  0
   -3.5416   -1.5698   -4.2946 H   0  0  0  0  0  0  0  0  0  0  0  0
   -2.1171   -0.7817   -3.6246 H   0  0  0  0  0  0  0  0  0  0  0  0
   -3.6751   -9.6710    5.3963 H   0  0  0  0  0  0  0  0  0  0  0  0
   -2.2298   -8.8964    6.0487 H   0  0  0  0  0  0  0  0  0  0  0  0
   -4.8059    0.5514   -4.2480 H   0  0  0  0  0  0  0  0  0  0  0  0
   -3.3422    0.6624   -5.2105 H   0  0  0  0  0  0  0  0  0  0  0  0
   -3.4727   -8.3484    8.1560 H   0  0  0  0  0  0  0  0  0  0  0  0
   -4.9195   -9.1222    7.5054 H   0  0  0  0  0  0  0  0  0  0  0  0
   -2.1723    1.8137   -3.2877 H   0  0  0  0  0  0  0  0  0  0  0  0
   -3.6848    1.7182   -2.3569 H   0  0  0  0  0  0  0  0  0  0  0  0
   -2.2422  -10.5279    8.0106 H   0  0  0  0  0  0  0  0  0  0  0  0
   -3.6925  -10.6510    9.0213 H   0  0  0  0  0  0  0  0  0  0  0  0
   -3.7061  -11.3026    7.3735 H   0  0  0  0  0  0  0  0  0  0  0  0
   -4.1397    6.0329   -2.7191 H   0  0  0  0  0  0  0  0  0  0  0  0
   -3.7353    5.6093   -4.3919 H   0  0  0  0  0  0  0  0  0  0  0  0
   -5.3702    5.2456   -3.7301 H   0  0  0  0  0  0  0  0  0  0  0  0
  1 18  1  0  0  0  0
  1 19  1  0  0  0  0
  2 18  2  0  0  0  0
  3  4  1  0  0  0  0
  3  5  1  0  0  0  0
  3 20  1  0  0  0  0
  3 21  1  0  0  0  0
  4  6  1  0  0  0  0
  4 22  1  0  0  0  0
  4 23  1  0  0  0  0
  5  7  1  0  0  0  0
  5 24  1  0  0  0  0
  5 25  1  0  0  0  0
  6  8  1  0  0  0  0
  6 26  1  0  0  0  0
  6 27  1  0  0  0  0
  7  9  1  0  0  0  0
  7 28  1  0  0  0  0
  7 29  1  0  0  0  0
  8 10  1  0  0  0  0
  8 30  1  0  0  0  0
  8 31  1  0  0  0  0
  9 11  1  0  0  0  0
  9 32  1  0  0  0  0
  9 33  1  0  0  0  0
 10 12  1  0  0  0  0
 10 34  1  0  0  0  0
 10 35  1  0  0  0  0
 11 13  1  0  0  0  0
 11 36  1  0  0  0  0
 11 37  1  0  0  0  0
 12 14  1  0  0  0  0
 12 38  1  0  0  0  0
 12 39  1  0  0  0  0
 13 15  1  0  0  0  0
 13 40  1  0  0  0  0
 13 41  1  0  0  0  0
 14 16  1  0  0  0  0
 14 42  1  0  0  0  0
 14 43  1  0  0  0  0
 15 17  1  0  0  0  0
 15 44  1  0  0  0  0
 15 45  1  0  0  0  0
 16 18  1  0  0  0  0
 16 46  1  0  0  0  0
 16 47  1  0  0  0  0
 17 48  1  0  0  0  0
 17 49  1  0  0  0  0
 17 50  1  0  0  0  0
 19 51  1  0  0  0  0
 19 52  1  0  0  0  0
 19 53  1  0  0  0  0
M  END
> <PUBCHEM_COMPOUND_CID>
8181

> <PUBCHEM_COMPOUND_CANONICALIZED>
1

> <PUBCHEM_CACTVS_COMPLEXITY>
190

> <PUBCHEM_CACTVS_HBOND_ACCEPTOR>
2

> <PUBCHEM_CACTVS_HBOND_DONOR>
0

> <PUBCHEM_CACTVS_ROTATABLE_BOND>
15

> <PUBCHEM_CACTVS_SUBSKEYS>
AAADcfB4MAAAAAAAAAAAAAAAAAAAAAAAAAAAAAAAAAAAAAAAAAAAGgAAAAAACACAgAICCAAABAAIAACQCAAAAAAAAAAAAAEAAAAAABIAAAAAAAAEAAAAAAGIyKCAAAAAAAAAAAAAAAAAAAAAAAAAAAAAAA==

> <PUBCHEM_IUPAC_OPENEYE_NAME>
methyl hexadecanoate

> <PUBCHEM_IUPAC_CAS_NAME>
hexadecanoic acid methyl ester

> <PUBCHEM_IUPAC_NAME>
methyl hexadecanoate

> <PUBCHEM_IUPAC_SYSTEMATIC_NAME>
methyl hexadecanoate

> <PUBCHEM_IUPAC_TRADITIONAL_NAME>
palmitic acid methyl ester

> <PUBCHEM_IUPAC_INCHI>
InChI=1S/C17H34O2/c1-3-4-5-6-7-8-9-10-11-12-13-14-15-16-17(18)19-2/h3-16H2,1-2H3

> <PUBCHEM_IUPAC_INCHIKEY>
FLIACVVOZYBSBS-UHFFFAOYSA-N

> <PUBCHEM_XLOGP3>
7.9

> <PUBCHEM_EXACT_MASS>
270.256

> <PUBCHEM_MOLECULAR_FORMULA>
C17H34O2

> <PUBCHEM_MOLECULAR_WEIGHT>
270.457

> <PUBCHEM_OPENEYE_CAN_SMILES>
CCCCCCCCCCCCCCCC(=O)OC

> <PUBCHEM_OPENEYE_ISO_SMILES>
CCCCCCCCCCCCCCCC(=O)OC

> <PUBCHEM_CACTVS_TPSA>
26.3

> <PUBCHEM_MONOISOTOPIC_WEIGHT>
270.256

> <PUBCHEM_TOTAL_CHARGE>
0

> <PUBCHEM_HEAVY_ATOM_COUNT>
19

> <PUBCHEM_ATOM_DEF_STEREO_COUNT>
0

> <PUBCHEM_ATOM_UDEF_STEREO_COUNT>
0

> <PUBCHEM_BOND_DEF_STEREO_COUNT>
0

> <PUBCHEM_BOND_UDEF_STEREO_COUNT>
0

> <PUBCHEM_ISOTOPIC_ATOM_COUNT>
0

> <PUBCHEM_COMPONENT_COUNT>
1

> <PUBCHEM_CACTVS_TAUTO_COUNT>
-1

> <PUBCHEM_COORDINATE_TYPE>
1 __ 5 __ 255

$$$$
8103
 OpenBabel02201912233D

 21 20  0  0  0  0  0  0  0  0999 V2000
   -0.9762   -0.1180   -1.0928 O   0  0  0  0  0  0  0  0  0  0  0  0
    2.5375    0.6927   -2.2624 C   0  0  0  0  0  0  0  0  0  0  0  0
    3.1191   -0.6518   -2.7107 C   0  0  0  0  0  0  0  0  0  0  0  0
    1.0130    0.7482   -2.1432 C   0  0  0  0  0  0  0  0  0  0  0  0
    2.6233   -1.1022   -4.0851 C   0  0  0  0  0  0  0  0  0  0  0  0
    0.4371   -0.2659   -1.1629 C   0  0  0  0  0  0  0  0  0  0  0  0
    3.2549   -2.4231   -4.4974 C   0  0  0  0  0  0  0  0  0  0  0  0
    2.8597    1.4714   -2.9648 H   0  0  0  0  0  0  0  0  0  0  0  0
    2.9777    0.9530   -1.2916 H   0  0  0  0  0  0  0  0  0  0  0  0
    4.2122   -0.5578   -2.7385 H   0  0  0  0  0  0  0  0  0  0  0  0
    2.8986   -1.4227   -1.9632 H   0  0  0  0  0  0  0  0  0  0  0  0
    0.5435    0.6192   -3.1252 H   0  0  0  0  0  0  0  0  0  0  0  0
    0.7225    1.7569   -1.8217 H   0  0  0  0  0  0  0  0  0  0  0  0
    1.5354   -1.2257   -4.0785 H   0  0  0  0  0  0  0  0  0  0  0  0
    2.8612   -0.3385   -4.8345 H   0  0  0  0  0  0  0  0  0  0  0  0
    0.8504   -0.1289   -0.1591 H   0  0  0  0  0  0  0  0  0  0  0  0
    0.6409   -1.2915   -1.4829 H   0  0  0  0  0  0  0  0  0  0  0  0
    3.0159   -3.2122   -3.7769 H   0  0  0  0  0  0  0  0  0  0  0  0
    2.8779   -2.7334   -5.4769 H   0  0  0  0  0  0  0  0  0  0  0  0
    4.3436   -2.3353   -4.5636 H   0  0  0  0  0  0  0  0  0  0  0  0
   -1.1612    0.7805   -0.7715 H   0  0  0  0  0  0  0  0  0  0  0  0
  1  6  1  0  0  0  0
  1 21  1  0  0  0  0
  2  3  1  0  0  0  0
  2  4  1  0  0  0  0
  2  8  1  0  0  0  0
  2  9  1  0  0  0  0
  3  5  1  0  0  0  0
  3 10  1  0  0  0  0
  3 11  1  0  0  0  0
  4  6  1  0  0  0  0
  4 12  1  0  0  0  0
  4 13  1  0  0  0  0
  5  7  1  0  0  0  0
  5 14  1  0  0  0  0
  5 15  1  0  0  0  0
  6 16  1  0  0  0  0
  6 17  1  0  0  0  0
  7 18  1  0  0  0  0
  7 19  1  0  0  0  0
  7 20  1  0  0  0  0
M  END
> <PUBCHEM_COMPOUND_CID>
8103

> <PUBCHEM_COMPOUND_CANONICALIZED>
1

> <PUBCHEM_CACTVS_COMPLEXITY>
27.4

> <PUBCHEM_CACTVS_HBOND_ACCEPTOR>
1

> <PUBCHEM_CACTVS_HBOND_DONOR>
1

> <PUBCHEM_CACTVS_ROTATABLE_BOND>
4

> <PUBCHEM_CACTVS_SUBSKEYS>
AAADccBgIAAAAAAAAAAAAAAAAAAAAAAAAAAAAAAAAAAAAAAAAAAAGgAACAAACACggAICAAAAAgAAAAAAAAAAAAAAAAAAAAAAAAAAEAIAAAAAQAAEAAAAAAGAQAAAAAAAAAAAAAAAAAAAAAAAAAAAAAAAAA==

> <PUBCHEM_IUPAC_OPENEYE_NAME>
hexan-1-ol

> <PUBCHEM_IUPAC_CAS_NAME>
1-hexanol

> <PUBCHEM_IUPAC_NAME>
hexan-1-ol

> <PUBCHEM_IUPAC_SYSTEMATIC_NAME>
hexan-1-ol

> <PUBCHEM_IUPAC_TRADITIONAL_NAME>
hexan-1-ol

> <PUBCHEM_IUPAC_INCHI>
InChI=1S/C6H14O/c1-2-3-4-5-6-7/h7H,2-6H2,1H3

> <PUBCHEM_IUPAC_INCHIKEY>
ZSIAUFGUXNUGDI-UHFFFAOYSA-N

> <PUBCHEM_XLOGP3>
2

> <PUBCHEM_EXACT_MASS>
102.104

> <PUBCHEM_MOLECULAR_FORMULA>
C6H14O

> <PUBCHEM_MOLECULAR_WEIGHT>
102.177

> <PUBCHEM_OPENEYE_CAN_SMILES>
CCCCCCO

> <PUBCHEM_OPENEYE_ISO_SMILES>
CCCCCCO

> <PUBCHEM_CACTVS_TPSA>
20.2

> <PUBCHEM_MONOISOTOPIC_WEIGHT>
102.104

> <PUBCHEM_TOTAL_CHARGE>
0

> <PUBCHEM_HEAVY_ATOM_COUNT>
7

> <PUBCHEM_ATOM_DEF_STEREO_COUNT>
0

> <PUBCHEM_ATOM_UDEF_STEREO_COUNT>
0

> <PUBCHEM_BOND_DEF_STEREO_COUNT>
0

> <PUBCHEM_BOND_UDEF_STEREO_COUNT>
0

> <PUBCHEM_ISOTOPIC_ATOM_COUNT>
0

> <PUBCHEM_COMPONENT_COUNT>
1

> <PUBCHEM_CACTVS_TAUTO_COUNT>
-1

> <PUBCHEM_COORDINATE_TYPE>
1 __ 5 __ 255

$$$$
5352557
 OpenBabel02201912233D

 24 23  0  0  0  0  0  0  0  0999 V2000
   -0.9926    0.9866   -0.4979 O   0  0  0  0  0  0  0  0  0  0  0  0
   -0.8473   -0.2855    1.4118 O   0  0  0  0  0  0  0  0  0  0  0  0
    0.5025    2.5790    0.6153 C   0  0  0  0  0  0  0  0  0  0  0  0
    0.3785    1.3874   -0.3367 C   0  0  0  0  0  0  0  0  0  0  0  0
    1.9252    3.0650    0.6748 C   0  0  0  0  0  0  0  0  0  0  0  0
    3.7544    4.7398    0.3016 C   0  0  0  0  0  0  0  0  0  0  0  0
    2.3166    4.3048    0.3384 C   0  0  0  0  0  0  0  0  0  0  0  0
    4.0570    5.8460    1.2988 C   0  0  0  0  0  0  0  0  0  0  0  0
   -1.4637    0.1151    0.4348 C   0  0  0  0  0  0  0  0  0  0  0  0
   -2.8481   -0.3265    0.0695 C   0  0  0  0  0  0  0  0  0  0  0  0
   -0.1794    3.3753    0.2918 H   0  0  0  0  0  0  0  0  0  0  0  0
    0.1741    2.2930    1.6214 H   0  0  0  0  0  0  0  0  0  0  0  0
    0.9939    0.5402   -0.0080 H   0  0  0  0  0  0  0  0  0  0  0  0
    0.7376    1.6650   -1.3339 H   0  0  0  0  0  0  0  0  0  0  0  0
    2.6671    2.3345    0.9906 H   0  0  0  0  0  0  0  0  0  0  0  0
    4.4256    3.8932    0.4890 H   0  0  0  0  0  0  0  0  0  0  0  0
    3.9760    5.0981   -0.7107 H   0  0  0  0  0  0  0  0  0  0  0  0
    1.5788    5.0402    0.0267 H   0  0  0  0  0  0  0  0  0  0  0  0
    3.9238    5.4968    2.3284 H   0  0  0  0  0  0  0  0  0  0  0  0
    5.0947    6.1770    1.1871 H   0  0  0  0  0  0  0  0  0  0  0  0
    3.4079    6.7141    1.1437 H   0  0  0  0  0  0  0  0  0  0  0  0
   -3.4834    0.5431   -0.1139 H   0  0  0  0  0  0  0  0  0  0  0  0
   -2.8064   -0.9659   -0.8165 H   0  0  0  0  0  0  0  0  0  0  0  0
   -3.2772   -0.8958    0.8984 H   0  0  0  0  0  0  0  0  0  0  0  0
  1  4  1  0  0  0  0
  1  9  1  0  0  0  0
  2  9  2  0  0  0  0
  3  4  1  0  0  0  0
  3  5  1  0  0  0  0
  3 11  1  0  0  0  0
  3 12  1  0  0  0  0
  4 13  1  0  0  0  0
  4 14  1  0  0  0  0
  5  7  2  0  0  0  0
  5 15  1  0  0  0  0
  6  7  1  0  0  0  0
  6  8  1  0  0  0  0
  6 16  1  0  0  0  0
  6 17  1  0  0  0  0
  7 18  1  0  0  0  0
  8 19  1  0  0  0  0
  8 20  1  0  0  0  0
  8 21  1  0  0  0  0
  9 10  1  0  0  0  0
 10 22  1  0  0  0  0
 10 23  1  0  0  0  0
 10 24  1  0  0  0  0
M  END
> <PUBCHEM_COMPOUND_CID>
5352557

> <PUBCHEM_COMPOUND_CANONICALIZED>
1

> <PUBCHEM_CACTVS_COMPLEXITY>
116

> <PUBCHEM_CACTVS_HBOND_ACCEPTOR>
2

> <PUBCHEM_CACTVS_HBOND_DONOR>
0

> <PUBCHEM_CACTVS_ROTATABLE_BOND>
5

> <PUBCHEM_CACTVS_SUBSKEYS>
AAADccBwMAAAAAAAAAAAAAAAAAAAAAAAAAAAAAAAAAAAAAAAAAAAGgAAAAAACACggAICCAAABACIACDSCAAAAAAgAAAICAAAAAgAAAAAAQACAAAAQAAIAAIAAAAAAAAAAAAAAAAAAAAAAAAAAAAAAAAAAA==

> <PUBCHEM_IUPAC_OPENEYE_NAME>
[(~{E})-hex-3-enyl] acetate

> <PUBCHEM_IUPAC_CAS_NAME>
acetic acid [(~{E})-hex-3-enyl] ester

> <PUBCHEM_IUPAC_NAME>
[(~{E})-hex-3-enyl] acetate

> <PUBCHEM_IUPAC_SYSTEMATIC_NAME>
[(~{E})-hex-3-enyl] ethanoate

> <PUBCHEM_IUPAC_TRADITIONAL_NAME>
acetic acid [(~{E})-hex-3-enyl] ester

> <PUBCHEM_IUPAC_INCHI>
InChI=1S/C8H14O2/c1-3-4-5-6-7-10-8(2)9/h4-5H,3,6-7H2,1-2H3/b5-4+

> <PUBCHEM_IUPAC_INCHIKEY>
NPFVOOAXDOBMCE-SNAWJCMRSA-N

> <PUBCHEM_XLOGP3_AA>
1.9

> <PUBCHEM_EXACT_MASS>
142.099

> <PUBCHEM_MOLECULAR_FORMULA>
C8H14O2

> <PUBCHEM_MOLECULAR_WEIGHT>
142.198

> <PUBCHEM_OPENEYE_CAN_SMILES>
CCC=CCCOC(=O)C

> <PUBCHEM_OPENEYE_ISO_SMILES>
CC/C=C/CCOC(=O)C

> <PUBCHEM_CACTVS_TPSA>
26.3

> <PUBCHEM_MONOISOTOPIC_WEIGHT>
142.099

> <PUBCHEM_TOTAL_CHARGE>
0

> <PUBCHEM_HEAVY_ATOM_COUNT>
10

> <PUBCHEM_ATOM_DEF_STEREO_COUNT>
0

> <PUBCHEM_ATOM_UDEF_STEREO_COUNT>
0

> <PUBCHEM_BOND_DEF_STEREO_COUNT>
1

> <PUBCHEM_BOND_UDEF_STEREO_COUNT>
0

> <PUBCHEM_ISOTOPIC_ATOM_COUNT>
0

> <PUBCHEM_COMPONENT_COUNT>
1

> <PUBCHEM_CACTVS_TAUTO_COUNT>
1

> <PUBCHEM_COORDINATE_TYPE>
1 __ 5 __ 255

$$$$
8908
 OpenBabel02201912233D

 26 25  0  0  0  0  0  0  0  0999 V2000
   -0.9221   -0.5241   -0.5005 O   0  0  0  0  0  0  0  0  0  0  0  0
   -0.5890    1.6520    0.1638 O   0  0  0  0  0  0  0  0  0  0  0  0
    1.9187   -0.2417   -3.0332 C   0  0  0  0  0  0  0  0  0  0  0  0
    2.4008   -1.6921   -3.1247 C   0  0  0  0  0  0  0  0  0  0  0  0
    0.5209   -0.1075   -2.4196 C   0  0  0  0  0  0  0  0  0  0  0  0
    3.7624   -1.8015   -3.8116 C   0  0  0  0  0  0  0  0  0  0  0  0
    0.4315   -0.6021   -0.9776 C   0  0  0  0  0  0  0  0  0  0  0  0
    4.2403   -3.2458   -3.8509 C   0  0  0  0  0  0  0  0  0  0  0  0
   -1.2897    0.6534    0.0724 C   0  0  0  0  0  0  0  0  0  0  0  0
   -2.6739    0.5378    0.6345 C   0  0  0  0  0  0  0  0  0  0  0  0
    1.8956    0.1930   -4.0409 H   0  0  0  0  0  0  0  0  0  0  0  0
    2.6341    0.3510   -2.4505 H   0  0  0  0  0  0  0  0  0  0  0  0
    2.4826   -2.1229   -2.1210 H   0  0  0  0  0  0  0  0  0  0  0  0
    1.6638   -2.2885   -3.6760 H   0  0  0  0  0  0  0  0  0  0  0  0
   -0.2114   -0.6418   -3.0362 H   0  0  0  0  0  0  0  0  0  0  0  0
    0.2198    0.9475   -2.4571 H   0  0  0  0  0  0  0  0  0  0  0  0
    3.6988   -1.4132   -4.8345 H   0  0  0  0  0  0  0  0  0  0  0  0
    4.5014   -1.1935   -3.2769 H   0  0  0  0  0  0  0  0  0  0  0  0
    1.1160   -0.0549   -0.3188 H   0  0  0  0  0  0  0  0  0  0  0  0
    0.7035   -1.6593   -0.9150 H   0  0  0  0  0  0  0  0  0  0  0  0
    3.5265   -3.8811   -4.3852 H   0  0  0  0  0  0  0  0  0  0  0  0
    5.2060   -3.3149   -4.3609 H   0  0  0  0  0  0  0  0  0  0  0  0
    4.3624   -3.6451   -2.8387 H   0  0  0  0  0  0  0  0  0  0  0  0
   -3.3404    0.0692   -0.0943 H   0  0  0  0  0  0  0  0  0  0  0  0
   -2.6453   -0.0489    1.5557 H   0  0  0  0  0  0  0  0  0  0  0  0
   -3.0616    1.5366    0.8544 H   0  0  0  0  0  0  0  0  0  0  0  0
  1  7  1  0  0  0  0
  1  9  1  0  0  0  0
  2  9  2  0  0  0  0
  3  4  1  0  0  0  0
  3  5  1  0  0  0  0
  3 11  1  0  0  0  0
  3 12  1  0  0  0  0
  4  6  1  0  0  0  0
  4 13  1  0  0  0  0
  4 14  1  0  0  0  0
  5  7  1  0  0  0  0
  5 15  1  0  0  0  0
  5 16  1  0  0  0  0
  6  8  1  0  0  0  0
  6 17  1  0  0  0  0
  6 18  1  0  0  0  0
  7 19  1  0  0  0  0
  7 20  1  0  0  0  0
  8 21  1  0  0  0  0
  8 22  1  0  0  0  0
  8 23  1  0  0  0  0
  9 10  1  0  0  0  0
 10 24  1  0  0  0  0
 10 25  1  0  0  0  0
 10 26  1  0  0  0  0
M  END
> <PUBCHEM_COMPOUND_CID>
8908

> <PUBCHEM_COMPOUND_CANONICALIZED>
1

> <PUBCHEM_CACTVS_COMPLEXITY>
89.3

> <PUBCHEM_CACTVS_HBOND_ACCEPTOR>
2

> <PUBCHEM_CACTVS_HBOND_DONOR>
0

> <PUBCHEM_CACTVS_ROTATABLE_BOND>
6

> <PUBCHEM_CACTVS_SUBSKEYS>
AAADceBwMAAAAAAAAAAAAAAAAAAAAAAAAAAAAAAAAAAAAAAAAAAAGgAAAAAACACggAICCAAABAAIAACQCAAAAAAAAAAAAAAAAAAAAAIAAAACAAAEAAAAAAGAQAAAAAAAAAAAAAAAAAAAAAAAAAAAAAAAAA==

> <PUBCHEM_IUPAC_OPENEYE_NAME>
hexyl acetate

> <PUBCHEM_IUPAC_CAS_NAME>
acetic acid hexyl ester

> <PUBCHEM_IUPAC_NAME>
hexyl acetate

> <PUBCHEM_IUPAC_SYSTEMATIC_NAME>
hexyl ethanoate

> <PUBCHEM_IUPAC_TRADITIONAL_NAME>
acetic acid hexyl ester

> <PUBCHEM_IUPAC_INCHI>
InChI=1S/C8H16O2/c1-3-4-5-6-7-10-8(2)9/h3-7H2,1-2H3

> <PUBCHEM_IUPAC_INCHIKEY>
AOGQPLXWSUTHQB-UHFFFAOYSA-N

> <PUBCHEM_XLOGP3>
2.4

> <PUBCHEM_EXACT_MASS>
144.115

> <PUBCHEM_MOLECULAR_FORMULA>
C8H16O2

> <PUBCHEM_MOLECULAR_WEIGHT>
144.214

> <PUBCHEM_OPENEYE_CAN_SMILES>
CCCCCCOC(=O)C

> <PUBCHEM_OPENEYE_ISO_SMILES>
CCCCCCOC(=O)C

> <PUBCHEM_CACTVS_TPSA>
26.3

> <PUBCHEM_MONOISOTOPIC_WEIGHT>
144.115

> <PUBCHEM_TOTAL_CHARGE>
0

> <PUBCHEM_HEAVY_ATOM_COUNT>
10

> <PUBCHEM_ATOM_DEF_STEREO_COUNT>
0

> <PUBCHEM_ATOM_UDEF_STEREO_COUNT>
0

> <PUBCHEM_BOND_DEF_STEREO_COUNT>
0

> <PUBCHEM_BOND_UDEF_STEREO_COUNT>
0

> <PUBCHEM_ISOTOPIC_ATOM_COUNT>
0

> <PUBCHEM_COMPONENT_COUNT>
1

> <PUBCHEM_CACTVS_TAUTO_COUNT>
1

> <PUBCHEM_COORDINATE_TYPE>
1 __ 5 __ 255

$$$$
31289
 OpenBabel02201912233D

 28 27  0  0  0  0  0  0  0  0999 V2000
    2.4835   -3.4950   -0.9267 O   0  0  0  0  0  0  0  0  0  0  0  0
    5.8474    0.3135    0.2552 C   0  0  0  0  0  0  0  0  0  0  0  0
    6.6484    1.3122    1.0941 C   0  0  0  0  0  0  0  0  0  0  0  0
    4.9239   -0.5458    1.1229 C   0  0  0  0  0  0  0  0  0  0  0  0
    7.5727    2.1614    0.2169 C   0  0  0  0  0  0  0  0  0  0  0  0
    4.1282   -1.5362    0.2695 C   0  0  0  0  0  0  0  0  0  0  0  0
    8.3669    3.1690    1.0490 C   0  0  0  0  0  0  0  0  0  0  0  0
    3.2083   -2.4064    1.1204 C   0  0  0  0  0  0  0  0  0  0  0  0
    9.2878    4.0116    0.1795 C   0  0  0  0  0  0  0  0  0  0  0  0
    2.4174   -3.3918    0.2934 C   0  0  0  0  0  0  0  0  0  0  0  0
    6.5372   -0.3357   -0.2979 H   0  0  0  0  0  0  0  0  0  0  0  0
    5.2500    0.8565   -0.4874 H   0  0  0  0  0  0  0  0  0  0  0  0
    5.9598    1.9661    1.6429 H   0  0  0  0  0  0  0  0  0  0  0  0
    7.2447    0.7716    1.8392 H   0  0  0  0  0  0  0  0  0  0  0  0
    4.2322    0.1001    1.6772 H   0  0  0  0  0  0  0  0  0  0  0  0
    5.5192   -1.0939    1.8632 H   0  0  0  0  0  0  0  0  0  0  0  0
    8.2658    1.5074   -0.3263 H   0  0  0  0  0  0  0  0  0  0  0  0
    6.9776    2.6954   -0.5339 H   0  0  0  0  0  0  0  0  0  0  0  0
    4.8194   -2.1754   -0.2939 H   0  0  0  0  0  0  0  0  0  0  0  0
    3.5326   -0.9882   -0.4714 H   0  0  0  0  0  0  0  0  0  0  0  0
    7.6789    3.8306    1.5881 H   0  0  0  0  0  0  0  0  0  0  0  0
    8.9664    2.6421    1.8003 H   0  0  0  0  0  0  0  0  0  0  0  0
    2.4913   -1.7858    1.6688 H   0  0  0  0  0  0  0  0  0  0  0  0
    3.7903   -2.9812    1.8493 H   0  0  0  0  0  0  0  0  0  0  0  0
    8.7186    4.5704   -0.5702 H   0  0  0  0  0  0  0  0  0  0  0  0
    9.8360    4.7320    0.7950 H   0  0  0  0  0  0  0  0  0  0  0  0
   10.0190    3.3848   -0.3408 H   0  0  0  0  0  0  0  0  0  0  0  0
    1.7416   -4.0458    0.8730 H   0  0  0  0  0  0  0  0  0  0  0  0
  1 10  2  0  0  0  0
  2  3  1  0  0  0  0
  2  4  1  0  0  0  0
  2 11  1  0  0  0  0
  2 12  1  0  0  0  0
  3  5  1  0  0  0  0
  3 13  1  0  0  0  0
  3 14  1  0  0  0  0
  4  6  1  0  0  0  0
  4 15  1  0  0  0  0
  4 16  1  0  0  0  0
  5  7  1  0  0  0  0
  5 17  1  0  0  0  0
  5 18  1  0  0  0  0
  6  8  1  0  0  0  0
  6 19  1  0  0  0  0
  6 20  1  0  0  0  0
  7  9  1  0  0  0  0
  7 21  1  0  0  0  0
  7 22  1  0  0  0  0
  8 10  1  0  0  0  0
  8 23  1  0  0  0  0
  8 24  1  0  0  0  0
  9 25  1  0  0  0  0
  9 26  1  0  0  0  0
  9 27  1  0  0  0  0
 10 28  1  0  0  0  0
M  END
> <PUBCHEM_COMPOUND_CID>
31289

> <PUBCHEM_COMPOUND_CANONICALIZED>
1

> <PUBCHEM_CACTVS_COMPLEXITY>
69.1

> <PUBCHEM_CACTVS_HBOND_ACCEPTOR>
1

> <PUBCHEM_CACTVS_HBOND_DONOR>
0

> <PUBCHEM_CACTVS_ROTATABLE_BOND>
7

> <PUBCHEM_CACTVS_SUBSKEYS>
AAADceBwIAAAAAAAAAAAAAAAAAAAAAAAAAAAAAAAAAAAAAAAAAAAGgAAAAAACACggAICAAAAAAAIAAgQgAAAAAAAAAAAAAEAAAAAABIAAAAAAAAAAAAAAAEIiICAAAAAAAAAAAAAAAAAAAAAAAAAAAAAAA==

> <PUBCHEM_IUPAC_OPENEYE_NAME>
nonanal

> <PUBCHEM_IUPAC_CAS_NAME>
nonanal

> <PUBCHEM_IUPAC_NAME>
nonanal

> <PUBCHEM_IUPAC_SYSTEMATIC_NAME>
nonanal

> <PUBCHEM_IUPAC_TRADITIONAL_NAME>
pelargonaldehyde

> <PUBCHEM_IUPAC_INCHI>
InChI=1S/C9H18O/c1-2-3-4-5-6-7-8-9-10/h9H,2-8H2,1H3

> <PUBCHEM_IUPAC_INCHIKEY>
GYHFUZHODSMOHU-UHFFFAOYSA-N

> <PUBCHEM_XLOGP3_AA>
3.3

> <PUBCHEM_EXACT_MASS>
142.136

> <PUBCHEM_MOLECULAR_FORMULA>
C9H18O

> <PUBCHEM_MOLECULAR_WEIGHT>
142.242

> <PUBCHEM_OPENEYE_CAN_SMILES>
CCCCCCCCC=O

> <PUBCHEM_OPENEYE_ISO_SMILES>
CCCCCCCCC=O

> <PUBCHEM_CACTVS_TPSA>
17.1

> <PUBCHEM_MONOISOTOPIC_WEIGHT>
142.136

> <PUBCHEM_TOTAL_CHARGE>
0

> <PUBCHEM_HEAVY_ATOM_COUNT>
10

> <PUBCHEM_ATOM_DEF_STEREO_COUNT>
0

> <PUBCHEM_ATOM_UDEF_STEREO_COUNT>
0

> <PUBCHEM_BOND_DEF_STEREO_COUNT>
0

> <PUBCHEM_BOND_UDEF_STEREO_COUNT>
0

> <PUBCHEM_ISOTOPIC_ATOM_COUNT>
0

> <PUBCHEM_COMPONENT_COUNT>
1

> <PUBCHEM_CACTVS_TAUTO_COUNT>
-1

> <PUBCHEM_COORDINATE_TYPE>
1 __ 5 __ 255

$$$$
5354833
 OpenBabel02201912233D

 26 25  0  0  0  0  0  0  0  0999 V2000
    5.3031   -4.8911    5.8824 O   0  0  0  0  0  0  0  0  0  0  0  0
    7.1037   -1.3803    1.2785 C   0  0  0  0  0  0  0  0  0  0  0  0
    8.0603   -0.2105    1.5204 C   0  0  0  0  0  0  0  0  0  0  0  0
    6.0655   -1.4835    2.3982 C   0  0  0  0  0  0  0  0  0  0  0  0
    9.1107   -0.1041    0.4151 C   0  0  0  0  0  0  0  0  0  0  0  0
    5.1166   -2.6626    2.1793 C   0  0  0  0  0  0  0  0  0  0  0  0
   10.0570    1.0614    0.6588 C   0  0  0  0  0  0  0  0  0  0  0  0
    4.0866   -2.7482    3.2710 C   0  0  0  0  0  0  0  0  0  0  0  0
    4.1519   -3.4560    4.4090 C   0  0  0  0  0  0  0  0  0  0  0  0
    5.3129   -4.2688    4.8271 C   0  0  0  0  0  0  0  0  0  0  0  0
    7.6744   -2.3153    1.2182 H   0  0  0  0  0  0  0  0  0  0  0  0
    6.5958   -1.2485    0.3155 H   0  0  0  0  0  0  0  0  0  0  0  0
    7.4894    0.7244    1.5757 H   0  0  0  0  0  0  0  0  0  0  0  0
    8.5604   -0.3407    2.4879 H   0  0  0  0  0  0  0  0  0  0  0  0
    5.4919   -0.5497    2.4529 H   0  0  0  0  0  0  0  0  0  0  0  0
    6.5811   -1.5990    3.3601 H   0  0  0  0  0  0  0  0  0  0  0  0
    9.6907   -1.0327    0.3618 H   0  0  0  0  0  0  0  0  0  0  0  0
    8.6193    0.0285   -0.5557 H   0  0  0  0  0  0  0  0  0  0  0  0
    5.6807   -3.5981    2.0973 H   0  0  0  0  0  0  0  0  0  0  0  0
    4.5924   -2.5455    1.2224 H   0  0  0  0  0  0  0  0  0  0  0  0
   10.5790    0.9504    1.6147 H   0  0  0  0  0  0  0  0  0  0  0  0
   10.8090    1.1122   -0.1348 H   0  0  0  0  0  0  0  0  0  0  0  0
    9.5134    2.0115    0.6727 H   0  0  0  0  0  0  0  0  0  0  0  0
    3.1812   -2.1671    3.0967 H   0  0  0  0  0  0  0  0  0  0  0  0
    3.3296   -3.4433    5.1183 H   0  0  0  0  0  0  0  0  0  0  0  0
    6.1839   -4.2785    4.1545 H   0  0  0  0  0  0  0  0  0  0  0  0
  1 10  2  0  0  0  0
  2  3  1  0  0  0  0
  2  4  1  0  0  0  0
  2 11  1  0  0  0  0
  2 12  1  0  0  0  0
  3  5  1  0  0  0  0
  3 13  1  0  0  0  0
  3 14  1  0  0  0  0
  4  6  1  0  0  0  0
  4 15  1  0  0  0  0
  4 16  1  0  0  0  0
  5  7  1  0  0  0  0
  5 17  1  0  0  0  0
  5 18  1  0  0  0  0
  6  8  1  0  0  0  0
  6 19  1  0  0  0  0
  6 20  1  0  0  0  0
  7 21  1  0  0  0  0
  7 22  1  0  0  0  0
  7 23  1  0  0  0  0
  8  9  2  0  0  0  0
  8 24  1  0  0  0  0
  9 10  1  0  0  0  0
  9 25  1  0  0  0  0
 10 26  1  0  0  0  0
M  END
> <PUBCHEM_COMPOUND_CID>
5354833

> <PUBCHEM_COMPOUND_CANONICALIZED>
1

> <PUBCHEM_CACTVS_COMPLEXITY>
94.9

> <PUBCHEM_CACTVS_HBOND_ACCEPTOR>
1

> <PUBCHEM_CACTVS_HBOND_DONOR>
0

> <PUBCHEM_CACTVS_ROTATABLE_BOND>
6

> <PUBCHEM_CACTVS_SUBSKEYS>
AAADceBwIAAAAAAAAAAAAAAAAAAAAAAAAAAAAAAAAAAAAAAAAAAAGgAAAAAACACggAICAAAAAACIAChSgAAAAAAgAAAICAAAAEgAAAIAAQAAAAAAgAAIAYMAgAAAAAAAAAAAAAAAAAAAAAAAAAAAAAAAAA==

> <PUBCHEM_IUPAC_OPENEYE_NAME>
(~{Z})-non-2-enal

> <PUBCHEM_IUPAC_CAS_NAME>
(~{Z})-2-nonenal

> <PUBCHEM_IUPAC_NAME>
(~{Z})-non-2-enal

> <PUBCHEM_IUPAC_SYSTEMATIC_NAME>
(~{Z})-non-2-enal

> <PUBCHEM_IUPAC_TRADITIONAL_NAME>
(~{Z})-non-2-enal

> <PUBCHEM_IUPAC_INCHI>
InChI=1S/C9H16O/c1-2-3-4-5-6-7-8-9-10/h7-9H,2-6H2,1H3/b8-7-

> <PUBCHEM_IUPAC_INCHIKEY>
BSAIUMLZVGUGKX-FPLPWBNLSA-N

> <PUBCHEM_XLOGP3_AA>
3.1

> <PUBCHEM_EXACT_MASS>
140.12

> <PUBCHEM_MOLECULAR_FORMULA>
C9H16O

> <PUBCHEM_MOLECULAR_WEIGHT>
140.226

> <PUBCHEM_OPENEYE_CAN_SMILES>
CCCCCCC=CC=O

> <PUBCHEM_OPENEYE_ISO_SMILES>
CCCCCC/C=C\C=O

> <PUBCHEM_CACTVS_TPSA>
17.1

> <PUBCHEM_MONOISOTOPIC_WEIGHT>
140.12

> <PUBCHEM_TOTAL_CHARGE>
0

> <PUBCHEM_HEAVY_ATOM_COUNT>
10

> <PUBCHEM_ATOM_DEF_STEREO_COUNT>
0

> <PUBCHEM_ATOM_UDEF_STEREO_COUNT>
0

> <PUBCHEM_BOND_DEF_STEREO_COUNT>
1

> <PUBCHEM_BOND_UDEF_STEREO_COUNT>
0

> <PUBCHEM_ISOTOPIC_ATOM_COUNT>
0

> <PUBCHEM_COMPONENT_COUNT>
1

> <PUBCHEM_CACTVS_TAUTO_COUNT>
1

> <PUBCHEM_COORDINATE_TYPE>
1 __ 5 __ 255

$$$$
454
 OpenBabel02201912233D

 25 24  0  0  0  0  0  0  0  0999 V2000
    2.6123   -3.4942   -1.4491 O   0  0  0  0  0  0  0  0  0  0  0  0
    5.7651    0.2489    0.1167 C   0  0  0  0  0  0  0  0  0  0  0  0
    4.8434   -0.6400    0.9554 C   0  0  0  0  0  0  0  0  0  0  0  0
    6.5746    1.2037    0.9969 C   0  0  0  0  0  0  0  0  0  0  0  0
    3.9535   -1.5608    0.1148 C   0  0  0  0  0  0  0  0  0  0  0  0
    7.5176    2.0643    0.1556 C   0  0  0  0  0  0  0  0  0  0  0  0
    4.7367   -2.5725   -0.7175 C   0  0  0  0  0  0  0  0  0  0  0  0
    8.3372    3.0071    1.0216 C   0  0  0  0  0  0  0  0  0  0  0  0
    3.8376   -3.5101   -1.4879 C   0  0  0  0  0  0  0  0  0  0  0  0
    6.4588   -0.3708   -0.4620 H   0  0  0  0  0  0  0  0  0  0  0  0
    5.1678    0.8257   -0.5996 H   0  0  0  0  0  0  0  0  0  0  0  0
    4.1940   -0.0042    1.5702 H   0  0  0  0  0  0  0  0  0  0  0  0
    5.4418   -1.2433    1.6486 H   0  0  0  0  0  0  0  0  0  0  0  0
    5.8940    1.8492    1.5652 H   0  0  0  0  0  0  0  0  0  0  0  0
    7.1571    0.6263    1.7251 H   0  0  0  0  0  0  0  0  0  0  0  0
    3.3151   -0.9560   -0.5407 H   0  0  0  0  0  0  0  0  0  0  0  0
    3.2767   -2.0977    0.7921 H   0  0  0  0  0  0  0  0  0  0  0  0
    8.1975    1.4215   -0.4157 H   0  0  0  0  0  0  0  0  0  0  0  0
    6.9407    2.6507   -0.5689 H   0  0  0  0  0  0  0  0  0  0  0  0
    5.3779   -3.1842   -0.0740 H   0  0  0  0  0  0  0  0  0  0  0  0
    5.3694   -2.0681   -1.4542 H   0  0  0  0  0  0  0  0  0  0  0  0
    8.9417    2.4507    1.7450 H   0  0  0  0  0  0  0  0  0  0  0  0
    9.0141    3.6012    0.3996 H   0  0  0  0  0  0  0  0  0  0  0  0
    7.6893    3.6961    1.5728 H   0  0  0  0  0  0  0  0  0  0  0  0
    4.3666   -4.2448   -2.1195 H   0  0  0  0  0  0  0  0  0  0  0  0
  1  9  2  0  0  0  0
  2  3  1  0  0  0  0
  2  4  1  0  0  0  0
  2 10  1  0  0  0  0
  2 11  1  0  0  0  0
  3  5  1  0  0  0  0
  3 12  1  0  0  0  0
  3 13  1  0  0  0  0
  4  6  1  0  0  0  0
  4 14  1  0  0  0  0
  4 15  1  0  0  0  0
  5  7  1  0  0  0  0
  5 16  1  0  0  0  0
  5 17  1  0  0  0  0
  6  8  1  0  0  0  0
  6 18  1  0  0  0  0
  6 19  1  0  0  0  0
  7  9  1  0  0  0  0
  7 20  1  0  0  0  0
  7 21  1  0  0  0  0
  8 22  1  0  0  0  0
  8 23  1  0  0  0  0
  8 24  1  0  0  0  0
  9 25  1  0  0  0  0
M  END
> <PUBCHEM_COMPOUND_CID>
454

> <PUBCHEM_COMPOUND_CANONICALIZED>
1

> <PUBCHEM_CACTVS_COMPLEXITY>
59.6

> <PUBCHEM_CACTVS_HBOND_ACCEPTOR>
1

> <PUBCHEM_CACTVS_HBOND_DONOR>
0

> <PUBCHEM_CACTVS_ROTATABLE_BOND>
6

> <PUBCHEM_CACTVS_SUBSKEYS>
AAADceBwIAAAAAAAAAAAAAAAAAAAAAAAAAAAAAAAAAAAAAAAAAAAGgAAAAAACACggAICAAAAAAAIAAgQgAAAAAAAAAAAAAEAAAAAABIAAAAAAAAAAAAAAAEIiICAAAAAAAAAAAAAAAAAAAAAAAAAAAAAAA==

> <PUBCHEM_IUPAC_OPENEYE_NAME>
octanal

> <PUBCHEM_IUPAC_CAS_NAME>
octanal

> <PUBCHEM_IUPAC_NAME>
octanal

> <PUBCHEM_IUPAC_SYSTEMATIC_NAME>
octanal

> <PUBCHEM_IUPAC_TRADITIONAL_NAME>
caprylaldehyde

> <PUBCHEM_IUPAC_INCHI>
InChI=1S/C8H16O/c1-2-3-4-5-6-7-8-9/h8H,2-7H2,1H3

> <PUBCHEM_IUPAC_INCHIKEY>
NUJGJRNETVAIRJ-UHFFFAOYSA-N

> <PUBCHEM_XLOGP3_AA>
2.7

> <PUBCHEM_EXACT_MASS>
128.12

> <PUBCHEM_MOLECULAR_FORMULA>
C8H16O

> <PUBCHEM_MOLECULAR_WEIGHT>
128.215

> <PUBCHEM_OPENEYE_CAN_SMILES>
CCCCCCCC=O

> <PUBCHEM_OPENEYE_ISO_SMILES>
CCCCCCCC=O

> <PUBCHEM_CACTVS_TPSA>
17.1

> <PUBCHEM_MONOISOTOPIC_WEIGHT>
128.12

> <PUBCHEM_TOTAL_CHARGE>
0

> <PUBCHEM_HEAVY_ATOM_COUNT>
9

> <PUBCHEM_ATOM_DEF_STEREO_COUNT>
0

> <PUBCHEM_ATOM_UDEF_STEREO_COUNT>
0

> <PUBCHEM_BOND_DEF_STEREO_COUNT>
0

> <PUBCHEM_BOND_UDEF_STEREO_COUNT>
0

> <PUBCHEM_ISOTOPIC_ATOM_COUNT>
0

> <PUBCHEM_COMPONENT_COUNT>
1

> <PUBCHEM_CACTVS_TAUTO_COUNT>
-1

> <PUBCHEM_COORDINATE_TYPE>
1 __ 5 __ 255

$$$$
5283324
 OpenBabel02201912233D

 23 22  0  0  0  0  0  0  0  0999 V2000
    2.5871    5.7849   -3.4132 O   0  0  0  0  0  0  0  0  0  0  0  0
    6.9906    1.8408    0.6442 C   0  0  0  0  0  0  0  0  0  0  0  0
    5.9070    2.8903    0.3857 C   0  0  0  0  0  0  0  0  0  0  0  0
    7.9021    2.2602    1.7981 C   0  0  0  0  0  0  0  0  0  0  0  0
    4.9997    2.4868   -0.7786 C   0  0  0  0  0  0  0  0  0  0  0  0
    8.9828    1.2246    2.0650 C   0  0  0  0  0  0  0  0  0  0  0  0
    3.9360    3.5216   -1.0210 C   0  0  0  0  0  0  0  0  0  0  0  0
    3.7957    4.1771   -2.1820 C   0  0  0  0  0  0  0  0  0  0  0  0
    2.7305    5.1859   -2.3549 C   0  0  0  0  0  0  0  0  0  0  0  0
    6.5215    0.8771    0.8769 H   0  0  0  0  0  0  0  0  0  0  0  0
    7.5894    1.6984   -0.2635 H   0  0  0  0  0  0  0  0  0  0  0  0
    6.3786    3.8571    0.1682 H   0  0  0  0  0  0  0  0  0  0  0  0
    5.3062    3.0241    1.2944 H   0  0  0  0  0  0  0  0  0  0  0  0
    8.3761    3.2212    1.5667 H   0  0  0  0  0  0  0  0  0  0  0  0
    7.3087    2.4024    2.7088 H   0  0  0  0  0  0  0  0  0  0  0  0
    4.5100    1.5313   -0.5548 H   0  0  0  0  0  0  0  0  0  0  0  0
    5.6035    2.3326   -1.6813 H   0  0  0  0  0  0  0  0  0  0  0  0
    9.6128    1.0773    1.1820 H   0  0  0  0  0  0  0  0  0  0  0  0
    9.6250    1.5516    2.8890 H   0  0  0  0  0  0  0  0  0  0  0  0
    8.5436    0.2604    2.3395 H   0  0  0  0  0  0  0  0  0  0  0  0
    3.2587    3.7172   -0.1919 H   0  0  0  0  0  0  0  0  0  0  0  0
    4.4390    4.0125   -3.0385 H   0  0  0  0  0  0  0  0  0  0  0  0
    2.0804    5.3669   -1.4830 H   0  0  0  0  0  0  0  0  0  0  0  0
  1  9  2  0  0  0  0
  2  3  1  0  0  0  0
  2  4  1  0  0  0  0
  2 10  1  0  0  0  0
  2 11  1  0  0  0  0
  3  5  1  0  0  0  0
  3 12  1  0  0  0  0
  3 13  1  0  0  0  0
  4  6  1  0  0  0  0
  4 14  1  0  0  0  0
  4 15  1  0  0  0  0
  5  7  1  0  0  0  0
  5 16  1  0  0  0  0
  5 17  1  0  0  0  0
  6 18  1  0  0  0  0
  6 19  1  0  0  0  0
  6 20  1  0  0  0  0
  7  8  2  0  0  0  0
  7 21  1  0  0  0  0
  8  9  1  0  0  0  0
  8 22  1  0  0  0  0
  9 23  1  0  0  0  0
M  END
> <PUBCHEM_COMPOUND_CID>
5283324

> <PUBCHEM_COMPOUND_CANONICALIZED>
1

> <PUBCHEM_CACTVS_COMPLEXITY>
84.6

> <PUBCHEM_CACTVS_HBOND_ACCEPTOR>
1

> <PUBCHEM_CACTVS_HBOND_DONOR>
0

> <PUBCHEM_CACTVS_ROTATABLE_BOND>
5

> <PUBCHEM_CACTVS_SUBSKEYS>
AAADccBwIAAAAAAAAAAAAAAAAAAAAAAAAAAAAAAAAAAAAAAAAAAAGgAAAAAACACggAICAAAAAACIAChSgAAAAAAgAAAICAAAAEgAAAIAAQAAAAAAgAAIAYMAAAAAAAAAAAAAAAAAAAAAAAAAAAAAAAAAAA==

> <PUBCHEM_IUPAC_OPENEYE_NAME>
(~{E})-oct-2-enal

> <PUBCHEM_IUPAC_CAS_NAME>
(~{E})-2-octenal

> <PUBCHEM_IUPAC_NAME>
(~{E})-oct-2-enal

> <PUBCHEM_IUPAC_SYSTEMATIC_NAME>
(~{E})-oct-2-enal

> <PUBCHEM_IUPAC_TRADITIONAL_NAME>
(~{E})-oct-2-enal

> <PUBCHEM_IUPAC_INCHI>
InChI=1S/C8H14O/c1-2-3-4-5-6-7-8-9/h6-8H,2-5H2,1H3/b7-6+

> <PUBCHEM_IUPAC_INCHIKEY>
LVBXEMGDVWVTGY-VOTSOKGWSA-N

> <PUBCHEM_XLOGP3_AA>
2.6

> <PUBCHEM_EXACT_MASS>
126.104

> <PUBCHEM_MOLECULAR_FORMULA>
C8H14O

> <PUBCHEM_MOLECULAR_WEIGHT>
126.199

> <PUBCHEM_OPENEYE_CAN_SMILES>
CCCCCC=CC=O

> <PUBCHEM_OPENEYE_ISO_SMILES>
CCCCC/C=C/C=O

> <PUBCHEM_CACTVS_TPSA>
17.1

> <PUBCHEM_MONOISOTOPIC_WEIGHT>
126.104

> <PUBCHEM_TOTAL_CHARGE>
0

> <PUBCHEM_HEAVY_ATOM_COUNT>
9

> <PUBCHEM_ATOM_DEF_STEREO_COUNT>
0

> <PUBCHEM_ATOM_UDEF_STEREO_COUNT>
0

> <PUBCHEM_BOND_DEF_STEREO_COUNT>
1

> <PUBCHEM_BOND_UDEF_STEREO_COUNT>
0

> <PUBCHEM_ISOTOPIC_ATOM_COUNT>
0

> <PUBCHEM_COMPONENT_COUNT>
1

> <PUBCHEM_CACTVS_TAUTO_COUNT>
1

> <PUBCHEM_COORDINATE_TYPE>
1 __ 5 __ 255

$$$$
18827
 OpenBabel02201912233D

 25 24  0  0  1  0  0  0  0  0999 V2000
    0.5972    3.8295    0.4443 O   0  0  0  0  0  0  0  0  0  0  0  0
    2.5589    2.2437   -1.1051 C   0  0  0  0  0  0  0  0  0  0  0  0
    3.2709    1.7565   -2.3726 C   0  0  0  0  0  0  0  0  0  0  0  0
    1.0325    2.0727   -1.1582 C   0  0  0  0  0  0  0  0  0  0  0  0
    2.8915    2.5452   -3.6270 C   0  0  0  0  0  0  0  0  0  0  0  0
    0.2979    2.4694    0.1349 C   0  0  3  0  0  0  0  0  0  0  0  0
    3.6903    2.0856   -4.8372 C   0  0  0  0  0  0  0  0  0  0  0  0
    0.5540    1.6559    1.3741 C   0  0  0  0  0  0  0  0  0  0  0  0
    1.0371    0.4080    1.4451 C   0  0  0  0  0  0  0  0  0  0  0  0
    2.8134    3.2968   -0.9383 H   0  0  0  0  0  0  0  0  0  0  0  0
    2.9677    1.6841   -0.2566 H   0  0  0  0  0  0  0  0  0  0  0  0
    4.3531    1.8426   -2.2106 H   0  0  0  0  0  0  0  0  0  0  0  0
    3.0598    0.6915   -2.5260 H   0  0  0  0  0  0  0  0  0  0  0  0
    0.7802    1.0416   -1.4323 H   0  0  0  0  0  0  0  0  0  0  0  0
    0.6468    2.7164   -1.9582 H   0  0  0  0  0  0  0  0  0  0  0  0
    1.8264    2.4207   -3.8488 H   0  0  0  0  0  0  0  0  0  0  0  0
    3.0692    3.6142   -3.4623 H   0  0  0  0  0  0  0  0  0  0  0  0
   -0.7799    2.4310   -0.0619 H   0  0  0  0  0  0  0  0  0  0  0  0
    3.5127    1.0255   -5.0445 H   0  0  0  0  0  0  0  0  0  0  0  0
    3.3976    2.6583   -5.7230 H   0  0  0  0  0  0  0  0  0  0  0  0
    4.7635    2.2300   -4.6785 H   0  0  0  0  0  0  0  0  0  0  0  0
    0.2799    2.1442    2.3089 H   0  0  0  0  0  0  0  0  0  0  0  0
    1.5041    3.8538    0.7905 H   0  0  0  0  0  0  0  0  0  0  0  0
    1.1622   -0.0798    2.4078 H   0  0  0  0  0  0  0  0  0  0  0  0
    1.2987   -0.1678    0.5637 H   0  0  0  0  0  0  0  0  0  0  0  0
  1  6  1  0  0  0  0
  1 23  1  0  0  0  0
  2  3  1  0  0  0  0
  2  4  1  0  0  0  0
  2 10  1  0  0  0  0
  2 11  1  0  0  0  0
  3  5  1  0  0  0  0
  3 12  1  0  0  0  0
  3 13  1  0  0  0  0
  4  6  1  0  0  0  0
  4 14  1  0  0  0  0
  4 15  1  0  0  0  0
  5  7  1  0  0  0  0
  5 16  1  0  0  0  0
  5 17  1  0  0  0  0
  6  8  1  0  0  0  0
  6 18  1  0  0  0  0
  7 19  1  0  0  0  0
  7 20  1  0  0  0  0
  7 21  1  0  0  0  0
  8  9  2  0  0  0  0
  8 22  1  0  0  0  0
  9 24  1  0  0  0  0
  9 25  1  0  0  0  0
M  END
> <PUBCHEM_COMPOUND_CID>
18827

> <PUBCHEM_COMPOUND_CANONICALIZED>
1

> <PUBCHEM_CACTVS_COMPLEXITY>
69

> <PUBCHEM_CACTVS_HBOND_ACCEPTOR>
1

> <PUBCHEM_CACTVS_HBOND_DONOR>
1

> <PUBCHEM_CACTVS_ROTATABLE_BOND>
5

> <PUBCHEM_CACTVS_SUBSKEYS>
AAADceBwIAAAAAAAAAAAAAAAAAAAAAAAAAAAAAAAAAAAAAAAAAAAGgAACAAACBSggAICAAAAAgCAACBCAAAAAAAgAAAIAAAAAAgAFAIAAQAAQAAEgAAAEAGAwAAAAAAAAAAAAAAAAAAAAAAAAAAAAAAAAA==

> <PUBCHEM_IUPAC_OPENEYE_NAME>
oct-1-en-3-ol

> <PUBCHEM_IUPAC_CAS_NAME>
1-octen-3-ol

> <PUBCHEM_IUPAC_NAME>
oct-1-en-3-ol

> <PUBCHEM_IUPAC_SYSTEMATIC_NAME>
oct-1-en-3-ol

> <PUBCHEM_IUPAC_TRADITIONAL_NAME>
oct-1-en-3-ol

> <PUBCHEM_IUPAC_INCHI>
InChI=1S/C8H16O/c1-3-5-6-7-8(9)4-2/h4,8-9H,2-3,5-7H2,1H3

> <PUBCHEM_IUPAC_INCHIKEY>
VSMOENVRRABVKN-UHFFFAOYSA-N

> <PUBCHEM_XLOGP3_AA>
2.6

> <PUBCHEM_EXACT_MASS>
128.12

> <PUBCHEM_MOLECULAR_FORMULA>
C8H16O

> <PUBCHEM_MOLECULAR_WEIGHT>
128.215

> <PUBCHEM_OPENEYE_CAN_SMILES>
CCCCCC(C=C)O

> <PUBCHEM_OPENEYE_ISO_SMILES>
CCCCCC(C=C)O

> <PUBCHEM_CACTVS_TPSA>
20.2

> <PUBCHEM_MONOISOTOPIC_WEIGHT>
128.12

> <PUBCHEM_TOTAL_CHARGE>
0

> <PUBCHEM_HEAVY_ATOM_COUNT>
9

> <PUBCHEM_ATOM_DEF_STEREO_COUNT>
0

> <PUBCHEM_ATOM_UDEF_STEREO_COUNT>
1

> <PUBCHEM_BOND_DEF_STEREO_COUNT>
0

> <PUBCHEM_BOND_UDEF_STEREO_COUNT>
0

> <PUBCHEM_ISOTOPIC_ATOM_COUNT>
0

> <PUBCHEM_COMPONENT_COUNT>
1

> <PUBCHEM_CACTVS_TAUTO_COUNT>
-1

> <PUBCHEM_COORDINATE_TYPE>
1 __ 5 __ 255

> <PUBCHEM_BONDANNOTATIONS>
6  18  3

$$$$
5363374
 OpenBabel02201912233D

 24 23  0  0  0  0  0  0  0  0999 V2000
   -1.3156   -1.1442    2.4852 O   0  0  0  0  0  0  0  0  0  0  0  0
   -1.1195   -2.9314    1.0485 O   0  0  0  0  0  0  0  0  0  0  0  0
    1.6162    0.8584    4.6446 C   0  0  0  0  0  0  0  0  0  0  0  0
    3.0274    0.2851    4.7689 C   0  0  0  0  0  0  0  0  0  0  0  0
    1.2434    1.1036    3.2105 C   0  0  0  0  0  0  0  0  0  0  0  0
    3.4123    0.0662    6.2240 C   0  0  0  0  0  0  0  0  0  0  0  0
    0.5807    0.2692    2.3921 C   0  0  0  0  0  0  0  0  0  0  0  0
    0.1039   -1.1214    2.6855 C   0  0  0  0  0  0  0  0  0  0  0  0
   -1.7896   -2.0996    1.6434 C   0  0  0  0  0  0  0  0  0  0  0  0
   -3.2810   -2.0019    1.5458 C   0  0  0  0  0  0  0  0  0  0  0  0
    1.5547    1.8132    5.1819 H   0  0  0  0  0  0  0  0  0  0  0  0
    0.8920    0.1949    5.1298 H   0  0  0  0  0  0  0  0  0  0  0  0
    3.0904   -0.6718    4.2364 H   0  0  0  0  0  0  0  0  0  0  0  0
    3.7544    0.9610    4.3027 H   0  0  0  0  0  0  0  0  0  0  0  0
    1.5429    2.0725    2.8114 H   0  0  0  0  0  0  0  0  0  0  0  0
    2.7035   -0.6032    6.7219 H   0  0  0  0  0  0  0  0  0  0  0  0
    4.4076   -0.3843    6.2892 H   0  0  0  0  0  0  0  0  0  0  0  0
    3.4322    1.0145    6.7705 H   0  0  0  0  0  0  0  0  0  0  0  0
    0.3835    0.6083    1.3763 H   0  0  0  0  0  0  0  0  0  0  0  0
    0.2954   -1.4201    3.7196 H   0  0  0  0  0  0  0  0  0  0  0  0
    0.6408   -1.8196    2.0348 H   0  0  0  0  0  0  0  0  0  0  0  0
   -3.7306   -2.2040    2.5209 H   0  0  0  0  0  0  0  0  0  0  0  0
   -3.5671   -1.0104    1.1864 H   0  0  0  0  0  0  0  0  0  0  0  0
   -3.6460   -2.7466    0.8316 H   0  0  0  0  0  0  0  0  0  0  0  0
  1  8  1  0  0  0  0
  1  9  1  0  0  0  0
  2  9  2  0  0  0  0
  3  4  1  0  0  0  0
  3  5  1  0  0  0  0
  3 11  1  0  0  0  0
  3 12  1  0  0  0  0
  4  6  1  0  0  0  0
  4 13  1  0  0  0  0
  4 14  1  0  0  0  0
  5  7  2  0  0  0  0
  5 15  1  0  0  0  0
  6 16  1  0  0  0  0
  6 17  1  0  0  0  0
  6 18  1  0  0  0  0
  7  8  1  0  0  0  0
  7 19  1  0  0  0  0
  8 20  1  0  0  0  0
  8 21  1  0  0  0  0
  9 10  1  0  0  0  0
 10 22  1  0  0  0  0
 10 23  1  0  0  0  0
 10 24  1  0  0  0  0
M  END
> <PUBCHEM_COMPOUND_CID>
5363374

> <PUBCHEM_COMPOUND_CANONICALIZED>
1

> <PUBCHEM_CACTVS_COMPLEXITY>
116

> <PUBCHEM_CACTVS_HBOND_ACCEPTOR>
2

> <PUBCHEM_CACTVS_HBOND_DONOR>
0

> <PUBCHEM_CACTVS_ROTATABLE_BOND>
5

> <PUBCHEM_CACTVS_SUBSKEYS>
AAADccBwMAAAAAAAAAAAAAAAAAAAAAAAAAAAAAAAAAAAAAAAAAAAGgAAAAAACACggAICCAAABACIACDSCAAAAAAgAAAICAAAAAgABAAAIQACEAAAgAAIIAIAAAAAAAAAAAAAAAAAAAAAAAAAAAAAAAAAAA==

> <PUBCHEM_IUPAC_OPENEYE_NAME>
[(~{Z})-hex-2-enyl] acetate

> <PUBCHEM_IUPAC_CAS_NAME>
acetic acid [(~{Z})-hex-2-enyl] ester

> <PUBCHEM_IUPAC_NAME>
[(~{Z})-hex-2-enyl] acetate

> <PUBCHEM_IUPAC_SYSTEMATIC_NAME>
[(~{Z})-hex-2-enyl] ethanoate

> <PUBCHEM_IUPAC_TRADITIONAL_NAME>
acetic acid [(~{Z})-hex-2-enyl] ester

> <PUBCHEM_IUPAC_INCHI>
InChI=1S/C8H14O2/c1-3-4-5-6-7-10-8(2)9/h5-6H,3-4,7H2,1-2H3/b6-5-

> <PUBCHEM_IUPAC_INCHIKEY>
HRHOWZHRCRZVCU-WAYWQWQTSA-N

> <PUBCHEM_XLOGP3_AA>
2

> <PUBCHEM_EXACT_MASS>
142.099

> <PUBCHEM_MOLECULAR_FORMULA>
C8H14O2

> <PUBCHEM_MOLECULAR_WEIGHT>
142.198

> <PUBCHEM_OPENEYE_CAN_SMILES>
CCCC=CCOC(=O)C

> <PUBCHEM_OPENEYE_ISO_SMILES>
CCC/C=C\COC(=O)C

> <PUBCHEM_CACTVS_TPSA>
26.3

> <PUBCHEM_MONOISOTOPIC_WEIGHT>
142.099

> <PUBCHEM_TOTAL_CHARGE>
0

> <PUBCHEM_HEAVY_ATOM_COUNT>
10

> <PUBCHEM_ATOM_DEF_STEREO_COUNT>
0

> <PUBCHEM_ATOM_UDEF_STEREO_COUNT>
0

> <PUBCHEM_BOND_DEF_STEREO_COUNT>
1

> <PUBCHEM_BOND_UDEF_STEREO_COUNT>
0

> <PUBCHEM_ISOTOPIC_ATOM_COUNT>
0

> <PUBCHEM_COMPONENT_COUNT>
1

> <PUBCHEM_CACTVS_TAUTO_COUNT>
1

> <PUBCHEM_COORDINATE_TYPE>
1 __ 5 __ 255

$$$$
5363388
 OpenBabel02201912233D

 24 23  0  0  0  0  0  0  0  0999 V2000
    1.5195    0.0783   -0.0742 O   0  0  0  0  0  0  0  0  0  0  0  0
   -0.0023   -0.0683    1.6395 O   0  0  0  0  0  0  0  0  0  0  0  0
    0.6128    2.3378   -0.4459 C   0  0  0  0  0  0  0  0  0  0  0  0
    0.5915    0.8601   -0.8487 C   0  0  0  0  0  0  0  0  0  0  0  0
    1.9967    2.9221   -0.5444 C   0  0  0  0  0  0  0  0  0  0  0  0
    1.8328    4.1100   -2.7987 C   0  0  0  0  0  0  0  0  0  0  0  0
    2.5121    3.6651   -1.5361 C   0  0  0  0  0  0  0  0  0  0  0  0
    1.9416    5.6187   -2.9626 C   0  0  0  0  0  0  0  0  0  0  0  0
    1.0902   -0.3187    1.1523 C   0  0  0  0  0  0  0  0  0  0  0  0
    2.1771   -1.0837    1.8466 C   0  0  0  0  0  0  0  0  0  0  0  0
   -0.1035    2.8919   -1.0609 H   0  0  0  0  0  0  0  0  0  0  0  0
    0.2765    2.4508    0.5916 H   0  0  0  0  0  0  0  0  0  0  0  0
    0.8874    0.7540   -1.8987 H   0  0  0  0  0  0  0  0  0  0  0  0
   -0.4204    0.4463   -0.7630 H   0  0  0  0  0  0  0  0  0  0  0  0
    2.6471    2.6890    0.2989 H   0  0  0  0  0  0  0  0  0  0  0  0
    2.3133    3.6179   -3.6511 H   0  0  0  0  0  0  0  0  0  0  0  0
    0.7773    3.8229   -2.8190 H   0  0  0  0  0  0  0  0  0  0  0  0
    3.5512    3.9786   -1.4350 H   0  0  0  0  0  0  0  0  0  0  0  0
    2.9836    5.9197   -3.1189 H   0  0  0  0  0  0  0  0  0  0  0  0
    1.3628    5.9502   -3.8301 H   0  0  0  0  0  0  0  0  0  0  0  0
    1.5648    6.1447   -2.0790 H   0  0  0  0  0  0  0  0  0  0  0  0
    2.6049   -1.8277    1.1686 H   0  0  0  0  0  0  0  0  0  0  0  0
    2.9488   -0.3929    2.1900 H   0  0  0  0  0  0  0  0  0  0  0  0
    1.7538   -1.6131    2.7062 H   0  0  0  0  0  0  0  0  0  0  0  0
  1  4  1  0  0  0  0
  1  9  1  0  0  0  0
  2  9  2  0  0  0  0
  3  4  1  0  0  0  0
  3  5  1  0  0  0  0
  3 11  1  0  0  0  0
  3 12  1  0  0  0  0
  4 13  1  0  0  0  0
  4 14  1  0  0  0  0
  5  7  2  0  0  0  0
  5 15  1  0  0  0  0
  6  7  1  0  0  0  0
  6  8  1  0  0  0  0
  6 16  1  0  0  0  0
  6 17  1  0  0  0  0
  7 18  1  0  0  0  0
  8 19  1  0  0  0  0
  8 20  1  0  0  0  0
  8 21  1  0  0  0  0
  9 10  1  0  0  0  0
 10 22  1  0  0  0  0
 10 23  1  0  0  0  0
 10 24  1  0  0  0  0
M  END
> <PUBCHEM_COMPOUND_CID>
5363388

> <PUBCHEM_COMPOUND_CANONICALIZED>
1

> <PUBCHEM_CACTVS_COMPLEXITY>
116

> <PUBCHEM_CACTVS_HBOND_ACCEPTOR>
2

> <PUBCHEM_CACTVS_HBOND_DONOR>
0

> <PUBCHEM_CACTVS_ROTATABLE_BOND>
5

> <PUBCHEM_CACTVS_SUBSKEYS>
AAADccBwMAAAAAAAAAAAAAAAAAAAAAAAAAAAAAAAAAAAAAAAAAAAGgAAAAAACACggAICCAAABACIACDSCAAAAAAgAAAICAAAAAgAAAAAAQACAAAAQAAIAAIAAAAAAAAAAAAAAAAAAAAAAAAAAAAAAAAAAA==

> <PUBCHEM_IUPAC_OPENEYE_NAME>
[(~{Z})-hex-3-enyl] acetate

> <PUBCHEM_IUPAC_CAS_NAME>
acetic acid [(~{Z})-hex-3-enyl] ester

> <PUBCHEM_IUPAC_NAME>
[(~{Z})-hex-3-enyl] acetate

> <PUBCHEM_IUPAC_SYSTEMATIC_NAME>
[(~{Z})-hex-3-enyl] ethanoate

> <PUBCHEM_IUPAC_TRADITIONAL_NAME>
acetic acid [(~{Z})-hex-3-enyl] ester

> <PUBCHEM_IUPAC_INCHI>
InChI=1S/C8H14O2/c1-3-4-5-6-7-10-8(2)9/h4-5H,3,6-7H2,1-2H3/b5-4-

> <PUBCHEM_IUPAC_INCHIKEY>
NPFVOOAXDOBMCE-PLNGDYQASA-N

> <PUBCHEM_XLOGP3_AA>
1.9

> <PUBCHEM_EXACT_MASS>
142.099

> <PUBCHEM_MOLECULAR_FORMULA>
C8H14O2

> <PUBCHEM_MOLECULAR_WEIGHT>
142.198

> <PUBCHEM_OPENEYE_CAN_SMILES>
CCC=CCCOC(=O)C

> <PUBCHEM_OPENEYE_ISO_SMILES>
CC/C=C\CCOC(=O)C

> <PUBCHEM_CACTVS_TPSA>
26.3

> <PUBCHEM_MONOISOTOPIC_WEIGHT>
142.099

> <PUBCHEM_TOTAL_CHARGE>
0

> <PUBCHEM_HEAVY_ATOM_COUNT>
10

> <PUBCHEM_ATOM_DEF_STEREO_COUNT>
0

> <PUBCHEM_ATOM_UDEF_STEREO_COUNT>
0

> <PUBCHEM_BOND_DEF_STEREO_COUNT>
1

> <PUBCHEM_BOND_UDEF_STEREO_COUNT>
0

> <PUBCHEM_ISOTOPIC_ATOM_COUNT>
0

> <PUBCHEM_COMPONENT_COUNT>
1

> <PUBCHEM_CACTVS_TAUTO_COUNT>
1

> <PUBCHEM_COORDINATE_TYPE>
1 __ 5 __ 255

$$$$
5281167
 OpenBabel02201912233D

 19 18  0  0  0  0  0  0  0  0999 V2000
    0.9993   -0.2266   -0.2313 O   0  0  0  0  0  0  0  0  0  0  0  0
    0.9668   -1.2581    1.9866 C   0  0  0  0  0  0  0  0  0  0  0  0
    2.4678   -1.1582    4.7286 C   0  0  0  0  0  0  0  0  0  0  0  0
    2.4596   -1.2589    2.1850 C   0  0  0  0  0  0  0  0  0  0  0  0
    3.0977   -1.2164    3.3661 C   0  0  0  0  0  0  0  0  0  0  0  0
    0.5657   -1.3626    0.5111 C   0  0  0  0  0  0  0  0  0  0  0  0
    2.8937   -2.3423    5.5842 C   0  0  0  0  0  0  0  0  0  0  0  0
    0.5578   -0.3287    2.3999 H   0  0  0  0  0  0  0  0  0  0  0  0
    0.5265   -2.1050    2.5254 H   0  0  0  0  0  0  0  0  0  0  0  0
    2.7812   -0.2289    5.2179 H   0  0  0  0  0  0  0  0  0  0  0  0
    1.3751   -1.1330    4.6689 H   0  0  0  0  0  0  0  0  0  0  0  0
    3.0690   -1.2843    1.2811 H   0  0  0  0  0  0  0  0  0  0  0  0
    4.1875   -1.2080    3.3514 H   0  0  0  0  0  0  0  0  0  0  0  0
   -0.5236   -1.4247    0.4205 H   0  0  0  0  0  0  0  0  0  0  0  0
    0.9947   -2.2564    0.0464 H   0  0  0  0  0  0  0  0  0  0  0  0
    3.9788   -2.3533    5.7330 H   0  0  0  0  0  0  0  0  0  0  0  0
    2.4198   -2.2867    6.5694 H   0  0  0  0  0  0  0  0  0  0  0  0
    2.6032   -3.2910    5.1205 H   0  0  0  0  0  0  0  0  0  0  0  0
    0.6868    0.5674    0.2352 H   0  0  0  0  0  0  0  0  0  0  0  0
  1  6  1  0  0  0  0
  1 19  1  0  0  0  0
  2  4  1  0  0  0  0
  2  6  1  0  0  0  0
  2  8  1  0  0  0  0
  2  9  1  0  0  0  0
  3  5  1  0  0  0  0
  3  7  1  0  0  0  0
  3 10  1  0  0  0  0
  3 11  1  0  0  0  0
  4  5  2  0  0  0  0
  4 12  1  0  0  0  0
  5 13  1  0  0  0  0
  6 14  1  0  0  0  0
  6 15  1  0  0  0  0
  7 16  1  0  0  0  0
  7 17  1  0  0  0  0
  7 18  1  0  0  0  0
M  END
> <PUBCHEM_COMPOUND_CID>
5281167

> <PUBCHEM_COMPOUND_CANONICALIZED>
1

> <PUBCHEM_CACTVS_COMPLEXITY>
48.1

> <PUBCHEM_CACTVS_HBOND_ACCEPTOR>
1

> <PUBCHEM_CACTVS_HBOND_DONOR>
1

> <PUBCHEM_CACTVS_ROTATABLE_BOND>
3

> <PUBCHEM_CACTVS_SUBSKEYS>
AAADccBgIAAAAAAAAAAAAAAAAAAAAAAAAAAAAAAAAAAAAAAAAAAAGgAACAAACACggAICAAAAAgCAACBCAAAAAAAgAAAICAAAAAgAEAAAAQAAQAAAQAAIAAIAAAAAAAAAAAAAAAAAAAAAAAAAAAAAAAAAAA==

> <PUBCHEM_IUPAC_OPENEYE_NAME>
(~{Z})-hex-3-en-1-ol

> <PUBCHEM_IUPAC_CAS_NAME>
(~{Z})-3-hexen-1-ol

> <PUBCHEM_IUPAC_NAME>
(~{Z})-hex-3-en-1-ol

> <PUBCHEM_IUPAC_SYSTEMATIC_NAME>
(~{Z})-hex-3-en-1-ol

> <PUBCHEM_IUPAC_TRADITIONAL_NAME>
(~{Z})-hex-3-en-1-ol

> <PUBCHEM_IUPAC_INCHI>
InChI=1S/C6H12O/c1-2-3-4-5-6-7/h3-4,7H,2,5-6H2,1H3/b4-3-

> <PUBCHEM_IUPAC_INCHIKEY>
UFLHIIWVXFIJGU-ARJAWSKDSA-N

> <PUBCHEM_XLOGP3_AA>
1.3

> <PUBCHEM_EXACT_MASS>
100.089

> <PUBCHEM_MOLECULAR_FORMULA>
C6H12O

> <PUBCHEM_MOLECULAR_WEIGHT>
100.161

> <PUBCHEM_OPENEYE_CAN_SMILES>
CCC=CCCO

> <PUBCHEM_OPENEYE_ISO_SMILES>
CC/C=C\CCO

> <PUBCHEM_CACTVS_TPSA>
20.2

> <PUBCHEM_MONOISOTOPIC_WEIGHT>
100.089

> <PUBCHEM_TOTAL_CHARGE>
0

> <PUBCHEM_HEAVY_ATOM_COUNT>
7

> <PUBCHEM_ATOM_DEF_STEREO_COUNT>
0

> <PUBCHEM_ATOM_UDEF_STEREO_COUNT>
0

> <PUBCHEM_BOND_DEF_STEREO_COUNT>
1

> <PUBCHEM_BOND_UDEF_STEREO_COUNT>
0

> <PUBCHEM_ISOTOPIC_ATOM_COUNT>
0

> <PUBCHEM_COMPONENT_COUNT>
1

> <PUBCHEM_CACTVS_TAUTO_COUNT>
1

> <PUBCHEM_COORDINATE_TYPE>
1 __ 5 __ 255

$$$$
1549018
 OpenBabel02201912233D

 28 28  0  0  0  0  0  0  0  0999 V2000
    1.1739   -0.1657   -0.4339 O   0  0  0  0  0  0  0  0  0  0  0  0
    4.4586    0.6766    0.5712 C   0  0  0  0  0  0  0  0  0  0  0  0
    4.4180   -0.8149    0.4061 C   0  0  0  0  0  0  0  0  0  0  0  0
    3.2213   -1.2975    0.0305 C   0  0  0  0  0  0  0  0  0  0  0  0
    3.1252    1.1685    0.0366 C   0  0  0  0  0  0  0  0  0  0  0  0
    2.3578   -0.1062   -0.1389 C   0  0  0  0  0  0  0  0  0  0  0  0
    2.6692   -2.6668   -0.1925 C   0  0  0  0  0  0  0  0  0  0  0  0
    5.6604   -1.5992    0.6635 C   0  0  0  0  0  0  0  0  0  0  0  0
    3.3822   -3.7468    0.5754 C   0  0  0  0  0  0  0  0  0  0  0  0
    3.0819   -4.2033    1.8032 C   0  0  0  0  0  0  0  0  0  0  0  0
    1.9579   -3.7429    2.6867 C   0  0  0  0  0  0  0  0  0  0  0  0
    1.0191   -4.8969    3.0019 C   0  0  0  0  0  0  0  0  0  0  0  0
    5.2880    1.1257    0.0165 H   0  0  0  0  0  0  0  0  0  0  0  0
    4.5737    0.9347    1.6301 H   0  0  0  0  0  0  0  0  0  0  0  0
    2.6243    1.8375    0.7400 H   0  0  0  0  0  0  0  0  0  0  0  0
    3.2405    1.6563   -0.9365 H   0  0  0  0  0  0  0  0  0  0  0  0
    1.6010   -2.6924    0.0519 H   0  0  0  0  0  0  0  0  0  0  0  0
    2.7272   -2.9033   -1.2620 H   0  0  0  0  0  0  0  0  0  0  0  0
    5.5451   -2.2524    1.5326 H   0  0  0  0  0  0  0  0  0  0  0  0
    5.9237   -2.2000   -0.2134 H   0  0  0  0  0  0  0  0  0  0  0  0
    6.5073   -0.9364    0.8675 H   0  0  0  0  0  0  0  0  0  0  0  0
    4.2403   -4.1858    0.0685 H   0  0  0  0  0  0  0  0  0  0  0  0
    3.7218   -4.9767    2.2271 H   0  0  0  0  0  0  0  0  0  0  0  0
    2.3777   -3.3483    3.6192 H   0  0  0  0  0  0  0  0  0  0  0  0
    1.3862   -2.9281    2.2325 H   0  0  0  0  0  0  0  0  0  0  0  0
    1.5289   -5.6670    3.5910 H   0  0  0  0  0  0  0  0  0  0  0  0
    0.1611   -4.5421    3.5810 H   0  0  0  0  0  0  0  0  0  0  0  0
    0.6420   -5.3635    2.0854 H   0  0  0  0  0  0  0  0  0  0  0  0
  1  6  2  0  0  0  0
  2  3  1  0  0  0  0
  2  5  1  0  0  0  0
  2 13  1  0  0  0  0
  2 14  1  0  0  0  0
  3  4  2  0  0  0  0
  3  8  1  0  0  0  0
  4  6  1  0  0  0  0
  4  7  1  0  0  0  0
  5  6  1  0  0  0  0
  5 15  1  0  0  0  0
  5 16  1  0  0  0  0
  7  9  1  0  0  0  0
  7 17  1  0  0  0  0
  7 18  1  0  0  0  0
  8 19  1  0  0  0  0
  8 20  1  0  0  0  0
  8 21  1  0  0  0  0
  9 10  2  0  0  0  0
  9 22  1  0  0  0  0
 10 11  1  0  0  0  0
 10 23  1  0  0  0  0
 11 12  1  0  0  0  0
 11 24  1  0  0  0  0
 11 25  1  0  0  0  0
 12 26  1  0  0  0  0
 12 27  1  0  0  0  0
 12 28  1  0  0  0  0
M  END
> <PUBCHEM_COMPOUND_CID>
1549018

> <PUBCHEM_COMPOUND_CANONICALIZED>
1

> <PUBCHEM_CACTVS_COMPLEXITY>
233

> <PUBCHEM_CACTVS_HBOND_ACCEPTOR>
1

> <PUBCHEM_CACTVS_HBOND_DONOR>
0

> <PUBCHEM_CACTVS_ROTATABLE_BOND>
3

> <PUBCHEM_CACTVS_SUBSKEYS>
AAADceBwIAAAAAAAAAAAAAAAAAAAAQAAAAAAAAAAAAAAAAAAAAAAGgAAAAAADASAgAACAAAAAACIAqBSAAAAAAAgAAAICAEAAEgAABIAAQAAAAAAgAAIAQMIgIAAAAAAAAAAAAAAAAAAAAAAAAAAAAAAAA==

> <PUBCHEM_IUPAC_OPENEYE_NAME>
3-methyl-2-[(~{Z})-pent-2-enyl]cyclopent-2-en-1-one

> <PUBCHEM_IUPAC_CAS_NAME>
3-methyl-2-[(~{Z})-pent-2-enyl]-1-cyclopent-2-enone

> <PUBCHEM_IUPAC_NAME>
3-methyl-2-[(~{Z})-pent-2-enyl]cyclopent-2-en-1-one

> <PUBCHEM_IUPAC_SYSTEMATIC_NAME>
3-methyl-2-[(~{Z})-pent-2-enyl]cyclopent-2-en-1-one

> <PUBCHEM_IUPAC_TRADITIONAL_NAME>
3-methyl-2-[(~{Z})-pent-2-enyl]cyclopent-2-en-1-one

> <PUBCHEM_IUPAC_INCHI>
InChI=1S/C11H16O/c1-3-4-5-6-10-9(2)7-8-11(10)12/h4-5H,3,6-8H2,1-2H3/b5-4-

> <PUBCHEM_IUPAC_INCHIKEY>
XMLSXPIVAXONDL-PLNGDYQASA-N

> <PUBCHEM_XLOGP3_AA>
2.2

> <PUBCHEM_EXACT_MASS>
164.12

> <PUBCHEM_MOLECULAR_FORMULA>
C11H16O

> <PUBCHEM_MOLECULAR_WEIGHT>
164.248

> <PUBCHEM_OPENEYE_CAN_SMILES>
CCC=CCC1=C(CCC1=O)C

> <PUBCHEM_OPENEYE_ISO_SMILES>
CC/C=C\CC1=C(CCC1=O)C

> <PUBCHEM_CACTVS_TPSA>
17.1

> <PUBCHEM_MONOISOTOPIC_WEIGHT>
164.12

> <PUBCHEM_TOTAL_CHARGE>
0

> <PUBCHEM_HEAVY_ATOM_COUNT>
12

> <PUBCHEM_ATOM_DEF_STEREO_COUNT>
0

> <PUBCHEM_ATOM_UDEF_STEREO_COUNT>
0

> <PUBCHEM_BOND_DEF_STEREO_COUNT>
1

> <PUBCHEM_BOND_UDEF_STEREO_COUNT>
0

> <PUBCHEM_ISOTOPIC_ATOM_COUNT>
0

> <PUBCHEM_COMPONENT_COUNT>
1

> <PUBCHEM_CACTVS_TAUTO_COUNT>
10

> <PUBCHEM_COORDINATE_TYPE>
1 __ 5 __ 255

$$$$
9862
 OpenBabel02201912233D

 23 22  0  0  0  0  0  0  0  0999 V2000
    1.6618    1.8768   -2.5960 O   0  0  0  0  0  0  0  0  0  0  0  0
    3.7960    1.8061   -0.7959 C   0  0  0  0  0  0  0  0  0  0  0  0
    3.0415    0.5252   -1.1467 C   0  0  0  0  0  0  0  0  0  0  0  0
    4.9094    1.5078    0.1737 C   0  0  0  0  0  0  0  0  0  0  0  0
    6.2210    1.7587   -0.0047 C   0  0  0  0  0  0  0  0  0  0  0  0
    1.9155    0.7661   -2.1332 C   0  0  0  0  0  0  0  0  0  0  0  0
    7.2334    1.3701    1.0376 C   0  0  0  0  0  0  0  0  0  0  0  0
    6.7753    2.4328   -1.2286 C   0  0  0  0  0  0  0  0  0  0  0  0
    1.0790   -0.4306   -2.5043 C   0  0  0  0  0  0  0  0  0  0  0  0
    4.1695    2.2770   -1.7111 H   0  0  0  0  0  0  0  0  0  0  0  0
    3.1114    2.5266   -0.3318 H   0  0  0  0  0  0  0  0  0  0  0  0
    2.6055    0.0836   -0.2428 H   0  0  0  0  0  0  0  0  0  0  0  0
    3.7263   -0.2042   -1.5948 H   0  0  0  0  0  0  0  0  0  0  0  0
    4.5918    1.0397    1.1052 H   0  0  0  0  0  0  0  0  0  0  0  0
    7.9888    0.7081    0.6010 H   0  0  0  0  0  0  0  0  0  0  0  0
    7.7338    2.2596    1.4330 H   0  0  0  0  0  0  0  0  0  0  0  0
    6.7779    0.8385    1.8799 H   0  0  0  0  0  0  0  0  0  0  0  0
    6.5956    1.8255   -2.1214 H   0  0  0  0  0  0  0  0  0  0  0  0
    6.3244    3.4213   -1.3655 H   0  0  0  0  0  0  0  0  0  0  0  0
    7.8575    2.5810   -1.1447 H   0  0  0  0  0  0  0  0  0  0  0  0
    0.1125   -0.3676   -1.9985 H   0  0  0  0  0  0  0  0  0  0  0  0
    0.9390   -0.4525   -3.5882 H   0  0  0  0  0  0  0  0  0  0  0  0
    1.5801   -1.3551   -2.2046 H   0  0  0  0  0  0  0  0  0  0  0  0
  1  6  2  0  0  0  0
  2  3  1  0  0  0  0
  2  4  1  0  0  0  0
  2 10  1  0  0  0  0
  2 11  1  0  0  0  0
  3  6  1  0  0  0  0
  3 12  1  0  0  0  0
  3 13  1  0  0  0  0
  4  5  2  0  0  0  0
  4 14  1  0  0  0  0
  5  7  1  0  0  0  0
  5  8  1  0  0  0  0
  6  9  1  0  0  0  0
  7 15  1  0  0  0  0
  7 16  1  0  0  0  0
  7 17  1  0  0  0  0
  8 18  1  0  0  0  0
  8 19  1  0  0  0  0
  8 20  1  0  0  0  0
  9 21  1  0  0  0  0
  9 22  1  0  0  0  0
  9 23  1  0  0  0  0
M  END
> <PUBCHEM_COMPOUND_CID>
9862

> <PUBCHEM_COMPOUND_CANONICALIZED>
1

> <PUBCHEM_CACTVS_COMPLEXITY>
119

> <PUBCHEM_CACTVS_HBOND_ACCEPTOR>
1

> <PUBCHEM_CACTVS_HBOND_DONOR>
0

> <PUBCHEM_CACTVS_ROTATABLE_BOND>
3

> <PUBCHEM_CACTVS_SUBSKEYS>
AAADccBwIAAAAAAAAAAAAAAAAAAAAAAAAAAAAAAAAAAAAAAAAAAAGgAAAAAADASAgAACAAAAAACIAqBSAAAAAAAgAAAACAEAAAgAABIAAQAAAAAAgAAIAAIAAAAAAAAAAAAAAAAAAAAAAAAAAAAAAAAAAA==

> <PUBCHEM_IUPAC_OPENEYE_NAME>
6-methylhept-5-en-2-one

> <PUBCHEM_IUPAC_CAS_NAME>
6-methyl-5-hepten-2-one

> <PUBCHEM_IUPAC_NAME>
6-methylhept-5-en-2-one

> <PUBCHEM_IUPAC_SYSTEMATIC_NAME>
6-methylhept-5-en-2-one

> <PUBCHEM_IUPAC_TRADITIONAL_NAME>
6-methylhept-5-en-2-one

> <PUBCHEM_IUPAC_INCHI>
InChI=1S/C8H14O/c1-7(2)5-4-6-8(3)9/h5H,4,6H2,1-3H3

> <PUBCHEM_IUPAC_INCHIKEY>
UHEPJGULSIKKTP-UHFFFAOYSA-N

> <PUBCHEM_XLOGP3>
1.9

> <PUBCHEM_EXACT_MASS>
126.104

> <PUBCHEM_MOLECULAR_FORMULA>
C8H14O

> <PUBCHEM_MOLECULAR_WEIGHT>
126.199

> <PUBCHEM_OPENEYE_CAN_SMILES>
CC(=CCCC(=O)C)C

> <PUBCHEM_OPENEYE_ISO_SMILES>
CC(=CCCC(=O)C)C

> <PUBCHEM_CACTVS_TPSA>
17.1

> <PUBCHEM_MONOISOTOPIC_WEIGHT>
126.104

> <PUBCHEM_TOTAL_CHARGE>
0

> <PUBCHEM_HEAVY_ATOM_COUNT>
9

> <PUBCHEM_ATOM_DEF_STEREO_COUNT>
0

> <PUBCHEM_ATOM_UDEF_STEREO_COUNT>
0

> <PUBCHEM_BOND_DEF_STEREO_COUNT>
0

> <PUBCHEM_BOND_UDEF_STEREO_COUNT>
0

> <PUBCHEM_ISOTOPIC_ATOM_COUNT>
0

> <PUBCHEM_COMPONENT_COUNT>
1

> <PUBCHEM_CACTVS_TAUTO_COUNT>
-1

> <PUBCHEM_COORDINATE_TYPE>
1 __ 5 __ 255

$$$$
6443227
 OpenBabel02201912233D

 42 41  0  0  0  0  0  0  0  0999 V2000
    0.8284    0.0733   -0.0139 C   0  0  0  0  0  0  0  0  0  0  0  0
    0.3542    1.4689    0.3959 C   0  0  0  0  0  0  0  0  0  0  0  0
   -0.9833    3.6070   -0.1321 C   0  0  0  0  0  0  0  0  0  0  0  0
    0.9234   -0.1762   -1.5288 C   0  0  0  0  0  0  0  0  0  0  0  0
   -2.4033    3.7863   -0.7008 C   0  0  0  0  0  0  0  0  0  0  0  0
   -0.4681    2.2112   -0.3751 C   0  0  0  0  0  0  0  0  0  0  0  0
   -2.9278    5.2043   -0.5673 C   0  0  0  0  0  0  0  0  0  0  0  0
    0.9181    1.9349    1.7128 C   0  0  0  0  0  0  0  0  0  0  0  0
    1.4063   -1.5586   -1.8825 C   0  0  0  0  0  0  0  0  0  0  0  0
    0.7143   -2.4685   -2.5989 C   0  0  0  0  0  0  0  0  0  0  0  0
   -2.1870    6.2620   -1.3432 C   0  0  0  0  0  0  0  0  0  0  0  0
   -4.0218    5.4595    0.1767 C   0  0  0  0  0  0  0  0  0  0  0  0
    1.3150   -3.7945   -2.9728 C   0  0  0  0  0  0  0  0  0  0  0  0
   -0.6871   -2.2327   -3.0939 C   0  0  0  0  0  0  0  0  0  0  0  0
   -4.6033    6.7639    0.3975 C   0  0  0  0  0  0  0  0  0  0  0  0
   -5.7267    6.9495    1.1006 C   0  0  0  0  0  0  0  0  0  0  0  0
    0.1648   -0.6669    0.4517 H   0  0  0  0  0  0  0  0  0  0  0  0
    1.8275   -0.0950    0.4120 H   0  0  0  0  0  0  0  0  0  0  0  0
   -0.9922    3.8600    0.9307 H   0  0  0  0  0  0  0  0  0  0  0  0
   -0.2959    4.2989   -0.6340 H   0  0  0  0  0  0  0  0  0  0  0  0
   -0.0452    0.0046   -2.0002 H   0  0  0  0  0  0  0  0  0  0  0  0
    1.6233    0.5449   -1.9690 H   0  0  0  0  0  0  0  0  0  0  0  0
   -2.4238    3.5148   -1.7654 H   0  0  0  0  0  0  0  0  0  0  0  0
   -3.0774    3.0782   -0.1991 H   0  0  0  0  0  0  0  0  0  0  0  0
   -0.8217    1.7924   -1.3154 H   0  0  0  0  0  0  0  0  0  0  0  0
    0.6271    1.2469    2.5132 H   0  0  0  0  0  0  0  0  0  0  0  0
    2.0127    1.9619    1.6631 H   0  0  0  0  0  0  0  0  0  0  0  0
    0.5872    2.9348    2.0010 H   0  0  0  0  0  0  0  0  0  0  0  0
    2.4172   -1.7969   -1.5552 H   0  0  0  0  0  0  0  0  0  0  0  0
   -2.8719    6.8389   -1.9738 H   0  0  0  0  0  0  0  0  0  0  0  0
   -1.6617    6.9407   -0.6639 H   0  0  0  0  0  0  0  0  0  0  0  0
   -1.4434    5.8214   -2.0156 H   0  0  0  0  0  0  0  0  0  0  0  0
   -4.5232    4.6296    0.6743 H   0  0  0  0  0  0  0  0  0  0  0  0
    0.7242   -4.6132   -2.5490 H   0  0  0  0  0  0  0  0  0  0  0  0
    1.3314   -3.9045   -4.0623 H   0  0  0  0  0  0  0  0  0  0  0  0
    2.3438   -3.9014   -2.6131 H   0  0  0  0  0  0  0  0  0  0  0  0
   -1.3598   -2.0073   -2.2587 H   0  0  0  0  0  0  0  0  0  0  0  0
   -0.7103   -1.4059   -3.8108 H   0  0  0  0  0  0  0  0  0  0  0  0
   -1.0858   -3.1172   -3.6004 H   0  0  0  0  0  0  0  0  0  0  0  0
   -4.0978    7.6340   -0.0136 H   0  0  0  0  0  0  0  0  0  0  0  0
   -6.1211    7.9493    1.2533 H   0  0  0  0  0  0  0  0  0  0  0  0
   -6.2799    6.1240    1.5366 H   0  0  0  0  0  0  0  0  0  0  0  0
  1  2  1  0  0  0  0
  1  4  1  0  0  0  0
  1 17  1  0  0  0  0
  1 18  1  0  0  0  0
  2  6  2  0  0  0  0
  2  8  1  0  0  0  0
  3  5  1  0  0  0  0
  3  6  1  0  0  0  0
  3 19  1  0  0  0  0
  3 20  1  0  0  0  0
  4  9  1  0  0  0  0
  4 21  1  0  0  0  0
  4 22  1  0  0  0  0
  5  7  1  0  0  0  0
  5 23  1  0  0  0  0
  5 24  1  0  0  0  0
  6 25  1  0  0  0  0
  7 11  1  0  0  0  0
  7 12  2  0  0  0  0
  8 26  1  0  0  0  0
  8 27  1  0  0  0  0
  8 28  1  0  0  0  0
  9 10  2  0  0  0  0
  9 29  1  0  0  0  0
 10 13  1  0  0  0  0
 10 14  1  0  0  0  0
 11 30  1  0  0  0  0
 11 31  1  0  0  0  0
 11 32  1  0  0  0  0
 12 15  1  0  0  0  0
 12 33  1  0  0  0  0
 13 34  1  0  0  0  0
 13 35  1  0  0  0  0
 13 36  1  0  0  0  0
 14 37  1  0  0  0  0
 14 38  1  0  0  0  0
 14 39  1  0  0  0  0
 15 16  2  0  0  0  0
 15 40  1  0  0  0  0
 16 41  1  0  0  0  0
 16 42  1  0  0  0  0
M  END
> <PUBCHEM_COMPOUND_CID>
6443227

> <PUBCHEM_COMPOUND_CANONICALIZED>
1

> <PUBCHEM_CACTVS_COMPLEXITY>
283

> <PUBCHEM_CACTVS_HBOND_ACCEPTOR>
0

> <PUBCHEM_CACTVS_HBOND_DONOR>
0

> <PUBCHEM_CACTVS_ROTATABLE_BOND>
7

> <PUBCHEM_CACTVS_SUBSKEYS>
AAADceB4AAAAAAAAAAAAAAAAAAAAAAAAAAAAAAAAAAAAAAAAAAAAGAAAAAAADACAAAACAAAAAACAAiBCAAAAAAAgAAAICAAAAAgIAAIAAQAAAAAAgAAIgAIAAAAAAAAAAAAAAAAAAAAAAAAAAAAAAAAAAA==

> <PUBCHEM_IUPAC_OPENEYE_NAME>
(3~{E},7~{E})-4,8,12-trimethyltrideca-1,3,7,11-tetraene

> <PUBCHEM_IUPAC_CAS_NAME>
(3~{E},7~{E})-4,8,12-trimethyltrideca-1,3,7,11-tetraene

> <PUBCHEM_IUPAC_NAME>
(3~{E},7~{E})-4,8,12-trimethyltrideca-1,3,7,11-tetraene

> <PUBCHEM_IUPAC_SYSTEMATIC_NAME>
(3~{E},7~{E})-4,8,12-trimethyltrideca-1,3,7,11-tetraene

> <PUBCHEM_IUPAC_TRADITIONAL_NAME>
(3~{E},7~{E})-4,8,12-trimethyltrideca-1,3,7,11-tetraene

> <PUBCHEM_IUPAC_INCHI>
InChI=1S/C16H26/c1-6-9-15(4)12-8-13-16(5)11-7-10-14(2)3/h6,9-10,13H,1,7-8,11-12H2,2-5H3/b15-9+,16-13+

> <PUBCHEM_IUPAC_INCHIKEY>
CWLVBFJCJXHUCF-RNPYNJAESA-N

> <PUBCHEM_XLOGP3_AA>
6.4

> <PUBCHEM_EXACT_MASS>
218.203

> <PUBCHEM_MOLECULAR_FORMULA>
C16H26

> <PUBCHEM_MOLECULAR_WEIGHT>
218.384

> <PUBCHEM_OPENEYE_CAN_SMILES>
CC(=CCCC(=CCCC(=CC=C)C)C)C

> <PUBCHEM_OPENEYE_ISO_SMILES>
CC(=CCC/C(=C/CC/C(=C/C=C)/C)/C)C

> <PUBCHEM_CACTVS_TPSA>
0

> <PUBCHEM_MONOISOTOPIC_WEIGHT>
218.203

> <PUBCHEM_TOTAL_CHARGE>
0

> <PUBCHEM_HEAVY_ATOM_COUNT>
16

> <PUBCHEM_ATOM_DEF_STEREO_COUNT>
0

> <PUBCHEM_ATOM_UDEF_STEREO_COUNT>
0

> <PUBCHEM_BOND_DEF_STEREO_COUNT>
2

> <PUBCHEM_BOND_UDEF_STEREO_COUNT>
0

> <PUBCHEM_ISOTOPIC_ATOM_COUNT>
0

> <PUBCHEM_COMPONENT_COUNT>
1

> <PUBCHEM_CACTVS_TAUTO_COUNT>
1

> <PUBCHEM_COORDINATE_TYPE>
1 __ 5 __ 255

$$$$
93231
 OpenBabel02201912233D

 25 24  0  0  0  0  0  0  0  0999 V2000
    2.3118    0.2375   -1.2448 O   0  0  0  0  0  0  0  0  0  0  0  0
    3.1837   -1.0789    0.5727 C   0  0  0  0  0  0  0  0  0  0  0  0
    3.9101   -1.8720   -0.5184 C   0  0  0  0  0  0  0  0  0  0  0  0
    2.3843    0.0681   -0.0272 C   0  0  0  0  0  0  0  0  0  0  0  0
    4.7357   -3.0156    0.0349 C   0  0  0  0  0  0  0  0  0  0  0  0
    1.6585    1.0202    0.8864 C   0  0  0  0  0  0  0  0  0  0  0  0
    0.9001    2.1311    0.2162 C   0  0  0  0  0  0  0  0  0  0  0  0
    4.1283   -4.3131    0.2911 C   0  0  0  0  0  0  0  0  0  0  0  0
    6.0544   -2.8518    0.2428 C   0  0  0  0  0  0  0  0  0  0  0  0
    1.6654    0.8866    2.2227 C   0  0  0  0  0  0  0  0  0  0  0  0
    2.8377   -4.6391    0.1408 C   0  0  0  0  0  0  0  0  0  0  0  0
    3.9209   -0.6626    1.2691 H   0  0  0  0  0  0  0  0  0  0  0  0
    2.4965   -1.7305    1.1236 H   0  0  0  0  0  0  0  0  0  0  0  0
    3.1992   -2.2423   -1.2678 H   0  0  0  0  0  0  0  0  0  0  0  0
    4.5651   -1.1862   -1.0740 H   0  0  0  0  0  0  0  0  0  0  0  0
    0.0551    2.4642    0.8290 H   0  0  0  0  0  0  0  0  0  0  0  0
    1.5601    2.9880    0.0462 H   0  0  0  0  0  0  0  0  0  0  0  0
    0.4833    1.8199   -0.7470 H   0  0  0  0  0  0  0  0  0  0  0  0
    4.8013   -5.1016    0.6279 H   0  0  0  0  0  0  0  0  0  0  0  0
    6.5436   -1.9031    0.0418 H   0  0  0  0  0  0  0  0  0  0  0  0
    6.6870   -3.6521    0.6139 H   0  0  0  0  0  0  0  0  0  0  0  0
    2.1951    0.0974    2.7437 H   0  0  0  0  0  0  0  0  0  0  0  0
    1.1324    1.5962    2.8510 H   0  0  0  0  0  0  0  0  0  0  0  0
    2.5041   -5.6516    0.3496 H   0  0  0  0  0  0  0  0  0  0  0  0
    2.0835   -3.9380   -0.1957 H   0  0  0  0  0  0  0  0  0  0  0  0
  1  4  2  0  0  0  0
  2  3  1  0  0  0  0
  2  4  1  0  0  0  0
  2 12  1  0  0  0  0
  2 13  1  0  0  0  0
  3  5  1  0  0  0  0
  3 14  1  0  0  0  0
  3 15  1  0  0  0  0
  4  6  1  0  0  0  0
  5  8  1  0  0  0  0
  5  9  2  0  0  0  0
  6  7  1  0  0  0  0
  6 10  2  0  0  0  0
  7 16  1  0  0  0  0
  7 17  1  0  0  0  0
  7 18  1  0  0  0  0
  8 11  2  0  0  0  0
  8 19  1  0  0  0  0
  9 20  1  0  0  0  0
  9 21  1  0  0  0  0
 10 22  1  0  0  0  0
 10 23  1  0  0  0  0
 11 24  1  0  0  0  0
 11 25  1  0  0  0  0
M  END
> <PUBCHEM_COMPOUND_CID>
93231

> <PUBCHEM_COMPOUND_CANONICALIZED>
1

> <PUBCHEM_CACTVS_COMPLEXITY>
199

> <PUBCHEM_CACTVS_HBOND_ACCEPTOR>
1

> <PUBCHEM_CACTVS_HBOND_DONOR>
0

> <PUBCHEM_CACTVS_ROTATABLE_BOND>
5

> <PUBCHEM_CACTVS_SUBSKEYS>
AAADccBwIAAAAAAAAAAAAAAAAAAAAAAAAAAAAAAAAAAAAAAAAAAAGgAAAAAADASAgAACAAAAAACIAqBSAAAAAAAgAAAIAAEAAEgIABIAAQAAAAAAgAAAAIEIgAAAAAAAAAAAAAAAAAAAAAAAAAAAAAAAAA==

> <PUBCHEM_IUPAC_OPENEYE_NAME>
2-methyl-6-methylene-octa-1,7-dien-3-one

> <PUBCHEM_IUPAC_CAS_NAME>
2-methyl-6-methylene-3-octa-1,7-dienone

> <PUBCHEM_IUPAC_NAME>
2-methyl-6-methylideneocta-1,7-dien-3-one

> <PUBCHEM_IUPAC_SYSTEMATIC_NAME>
2-methyl-6-methylidene-octa-1,7-dien-3-one

> <PUBCHEM_IUPAC_TRADITIONAL_NAME>
2-methyl-6-methylene-octa-1,7-dien-3-one

> <PUBCHEM_IUPAC_INCHI>
InChI=1S/C10H14O/c1-5-9(4)6-7-10(11)8(2)3/h5H,1-2,4,6-7H2,3H3

> <PUBCHEM_IUPAC_INCHIKEY>
YZWOKWMEQQCMRN-UHFFFAOYSA-N

> <PUBCHEM_XLOGP3_AA>
3

> <PUBCHEM_EXACT_MASS>
150.104

> <PUBCHEM_MOLECULAR_FORMULA>
C10H14O

> <PUBCHEM_MOLECULAR_WEIGHT>
150.221

> <PUBCHEM_OPENEYE_CAN_SMILES>
CC(=C)C(=O)CCC(=C)C=C

> <PUBCHEM_OPENEYE_ISO_SMILES>
CC(=C)C(=O)CCC(=C)C=C

> <PUBCHEM_CACTVS_TPSA>
17.1

> <PUBCHEM_MONOISOTOPIC_WEIGHT>
150.104

> <PUBCHEM_TOTAL_CHARGE>
0

> <PUBCHEM_HEAVY_ATOM_COUNT>
11

> <PUBCHEM_ATOM_DEF_STEREO_COUNT>
0

> <PUBCHEM_ATOM_UDEF_STEREO_COUNT>
0

> <PUBCHEM_BOND_DEF_STEREO_COUNT>
0

> <PUBCHEM_BOND_UDEF_STEREO_COUNT>
0

> <PUBCHEM_ISOTOPIC_ATOM_COUNT>
0

> <PUBCHEM_COMPONENT_COUNT>
1

> <PUBCHEM_CACTVS_TAUTO_COUNT>
2

> <PUBCHEM_COORDINATE_TYPE>
1 __ 5 __ 255

$$$$
26049
 OpenBabel02201912233D

 26 27  0  0  1  0  0  0  0  0999 V2000
    2.0124   -0.2213   -0.2204 C   0  0  0  0  0  0  0  0  0  0  0  0
    0.6980   -0.8036    0.2082 C   0  0  3  0  0  0  0  0  0  0  0  0
    0.7743    0.6386   -0.3154 C   0  0  3  0  0  0  0  0  0  0  0  0
   -0.5259   -1.3957   -0.4265 C   0  0  0  0  0  0  0  0  0  0  0  0
   -0.1964    1.3848    0.5502 C   0  0  0  0  0  0  0  0  0  0  0  0
    3.0285    0.1434    0.8286 C   0  0  0  0  0  0  0  0  0  0  0  0
    2.6131   -0.7618   -1.4926 C   0  0  0  0  0  0  0  0  0  0  0  0
   -1.7426   -0.5002   -0.1258 C   0  0  0  0  0  0  0  0  0  0  0  0
   -1.5829    0.7474    0.3868 C   0  0  0  0  0  0  0  0  0  0  0  0
   -3.0924   -1.0811   -0.4146 C   0  0  0  0  0  0  0  0  0  0  0  0
    0.6421   -0.9876    1.2832 H   0  0  0  0  0  0  0  0  0  0  0  0
    0.5188    0.8671   -1.3529 H   0  0  0  0  0  0  0  0  0  0  0  0
   -0.4083   -1.5147   -1.5089 H   0  0  0  0  0  0  0  0  0  0  0  0
   -0.6895   -2.3907    0.0046 H   0  0  0  0  0  0  0  0  0  0  0  0
   -0.2462    2.4271    0.2160 H   0  0  0  0  0  0  0  0  0  0  0  0
    0.0922    1.3875    1.6070 H   0  0  0  0  0  0  0  0  0  0  0  0
    3.6117   -0.7379    1.1156 H   0  0  0  0  0  0  0  0  0  0  0  0
    3.7193    0.8995    0.4398 H   0  0  0  0  0  0  0  0  0  0  0  0
    2.5631    0.5489    1.7330 H   0  0  0  0  0  0  0  0  0  0  0  0
    1.8507   -0.9936   -2.2444 H   0  0  0  0  0  0  0  0  0  0  0  0
    3.2997   -0.0307   -1.9308 H   0  0  0  0  0  0  0  0  0  0  0  0
    3.1706   -1.6818   -1.2881 H   0  0  0  0  0  0  0  0  0  0  0  0
   -2.4429    1.3694    0.6172 H   0  0  0  0  0  0  0  0  0  0  0  0
   -3.8034   -0.8543    0.3861 H   0  0  0  0  0  0  0  0  0  0  0  0
   -3.4789   -0.6786   -1.3565 H   0  0  0  0  0  0  0  0  0  0  0  0
   -3.0443   -2.1708   -0.5117 H   0  0  0  0  0  0  0  0  0  0  0  0
  1  2  1  0  0  0  0
  1  3  1  0  0  0  0
  1  6  1  0  0  0  0
  1  7  1  0  0  0  0
  2  3  1  0  0  0  0
  2  4  1  0  0  0  0
  2 11  1  0  0  0  0
  3  5  1  0  0  0  0
  3 12  1  0  0  0  0
  4  8  1  0  0  0  0
  4 13  1  0  0  0  0
  4 14  1  0  0  0  0
  5  9  1  0  0  0  0
  5 15  1  0  0  0  0
  5 16  1  0  0  0  0
  6 17  1  0  0  0  0
  6 18  1  0  0  0  0
  6 19  1  0  0  0  0
  7 20  1  0  0  0  0
  7 21  1  0  0  0  0
  7 22  1  0  0  0  0
  8  9  2  0  0  0  0
  8 10  1  0  0  0  0
  9 23  1  0  0  0  0
 10 24  1  0  0  0  0
 10 25  1  0  0  0  0
 10 26  1  0  0  0  0
M  END
> <PUBCHEM_COMPOUND_CID>
26049

> <PUBCHEM_COMPOUND_CANONICALIZED>
1

> <PUBCHEM_CACTVS_COMPLEXITY>
186

> <PUBCHEM_CACTVS_HBOND_ACCEPTOR>
0

> <PUBCHEM_CACTVS_HBOND_DONOR>
0

> <PUBCHEM_CACTVS_ROTATABLE_BOND>
0

> <PUBCHEM_CACTVS_SUBSKEYS>
AAADceBwAAAAAAAAAAAAAAAAGAAAAAAAAAAgAAAABAAAAAAAAAAAGAAAAAAADwCAAAACAAAAAACAAiBCAAAAAAAgAAAACAAAAAgAAAIAAQAAAAAAgAAIAAMAgMAPgAAAAAAAAAAAAAAAAAAAAAAAAAAAAA==

> <PUBCHEM_IUPAC_OPENEYE_NAME>
3,7,7-trimethylbicyclo[4.1.0]hept-3-ene

> <PUBCHEM_IUPAC_CAS_NAME>
3,7,7-trimethylbicyclo[4.1.0]hept-3-ene

> <PUBCHEM_IUPAC_NAME>
3,7,7-trimethylbicyclo[4.1.0]hept-3-ene

> <PUBCHEM_IUPAC_SYSTEMATIC_NAME>
3,7,7-trimethylbicyclo[4.1.0]hept-3-ene

> <PUBCHEM_IUPAC_TRADITIONAL_NAME>
3,7,7-trimethylbicyclo[4.1.0]hept-3-ene

> <PUBCHEM_IUPAC_INCHI>
InChI=1S/C10H16/c1-7-4-5-8-9(6-7)10(8,2)3/h4,8-9H,5-6H2,1-3H3

> <PUBCHEM_IUPAC_INCHIKEY>
BQOFWKZOCNGFEC-UHFFFAOYSA-N

> <PUBCHEM_XLOGP3_AA>
2.8

> <PUBCHEM_EXACT_MASS>
136.125

> <PUBCHEM_MOLECULAR_FORMULA>
C10H16

> <PUBCHEM_MOLECULAR_WEIGHT>
136.238

> <PUBCHEM_OPENEYE_CAN_SMILES>
CC1=CCC2C(C1)C2(C)C

> <PUBCHEM_OPENEYE_ISO_SMILES>
CC1=CCC2C(C1)C2(C)C

> <PUBCHEM_CACTVS_TPSA>
0

> <PUBCHEM_MONOISOTOPIC_WEIGHT>
136.125

> <PUBCHEM_TOTAL_CHARGE>
0

> <PUBCHEM_HEAVY_ATOM_COUNT>
10

> <PUBCHEM_ATOM_DEF_STEREO_COUNT>
0

> <PUBCHEM_ATOM_UDEF_STEREO_COUNT>
2

> <PUBCHEM_BOND_DEF_STEREO_COUNT>
0

> <PUBCHEM_BOND_UDEF_STEREO_COUNT>
0

> <PUBCHEM_ISOTOPIC_ATOM_COUNT>
0

> <PUBCHEM_COMPONENT_COUNT>
1

> <PUBCHEM_CACTVS_TAUTO_COUNT>
-1

> <PUBCHEM_COORDINATE_TYPE>
1 __ 5 __ 255

> <PUBCHEM_BONDANNOTATIONS>
2  1  3 __ 3  1  3

$$$$
6654
 OpenBabel02201912233D

 26 27  0  0  1  0  0  0  0  0999 V2000
   -0.9747   -0.0394    1.2055 C   0  0  0  0  0  0  0  0  0  0  0  0
   -0.5872    1.0415    0.1020 C   0  0  3  0  0  0  0  0  0  0  0  0
   -0.5273   -1.0690    0.0723 C   0  0  3  0  0  0  0  0  0  0  0  0
   -1.0785   -0.0082   -0.9492 C   0  0  0  0  0  0  0  0  0  0  0  0
    0.9240    1.2964   -0.0795 C   0  0  0  0  0  0  0  0  0  0  0  0
    0.9697   -1.1951   -0.0733 C   0  0  0  0  0  0  0  0  0  0  0  0
   -2.4708   -0.0858    1.5734 C   0  0  0  0  0  0  0  0  0  0  0  0
   -0.1804   -0.0242    2.5183 C   0  0  0  0  0  0  0  0  0  0  0  0
    1.6476   -0.0327   -0.1610 C   0  0  0  0  0  0  0  0  0  0  0  0
    1.5830   -2.5541   -0.0941 C   0  0  0  0  0  0  0  0  0  0  0  0
   -1.1644    1.9715    0.1337 H   0  0  0  0  0  0  0  0  0  0  0  0
   -1.0468   -2.0318    0.0685 H   0  0  0  0  0  0  0  0  0  0  0  0
   -0.6022    0.0262   -1.9356 H   0  0  0  0  0  0  0  0  0  0  0  0
   -2.1585   -0.0383   -1.1254 H   0  0  0  0  0  0  0  0  0  0  0  0
    1.3135    1.8791    0.7616 H   0  0  0  0  0  0  0  0  0  0  0  0
    1.1027    1.8670   -0.9969 H   0  0  0  0  0  0  0  0  0  0  0  0
   -2.6957   -0.9934    2.1447 H   0  0  0  0  0  0  0  0  0  0  0  0
   -2.7398    0.7779    2.1917 H   0  0  0  0  0  0  0  0  0  0  0  0
   -3.1367   -0.0792    0.7074 H   0  0  0  0  0  0  0  0  0  0  0  0
    0.9029   -0.0399    2.3819 H   0  0  0  0  0  0  0  0  0  0  0  0
   -0.4152    0.8761    3.0971 H   0  0  0  0  0  0  0  0  0  0  0  0
   -0.4351   -0.8956    3.1320 H   0  0  0  0  0  0  0  0  0  0  0  0
    2.7284   -0.0176   -0.2682 H   0  0  0  0  0  0  0  0  0  0  0  0
    1.2960   -3.1127    0.8027 H   0  0  0  0  0  0  0  0  0  0  0  0
    1.2453   -3.1114   -0.9731 H   0  0  0  0  0  0  0  0  0  0  0  0
    2.6764   -2.5053   -0.1215 H   0  0  0  0  0  0  0  0  0  0  0  0
  1  2  1  0  0  0  0
  1  3  1  0  0  0  0
  1  7  1  0  0  0  0
  1  8  1  0  0  0  0
  2  4  1  0  0  0  0
  2  5  1  0  0  0  0
  2 11  1  0  0  0  0
  3  4  1  0  0  0  0
  3  6  1  0  0  0  0
  3 12  1  0  0  0  0
  4 13  1  0  0  0  0
  4 14  1  0  0  0  0
  5  9  1  0  0  0  0
  5 15  1  0  0  0  0
  5 16  1  0  0  0  0
  6  9  2  0  0  0  0
  6 10  1  0  0  0  0
  7 17  1  0  0  0  0
  7 18  1  0  0  0  0
  7 19  1  0  0  0  0
  8 20  1  0  0  0  0
  8 21  1  0  0  0  0
  8 22  1  0  0  0  0
  9 23  1  0  0  0  0
 10 24  1  0  0  0  0
 10 25  1  0  0  0  0
 10 26  1  0  0  0  0
M  END
> <PUBCHEM_COMPOUND_CID>
6654

> <PUBCHEM_COMPOUND_CANONICALIZED>
1

> <PUBCHEM_CACTVS_COMPLEXITY>
186

> <PUBCHEM_CACTVS_HBOND_ACCEPTOR>
0

> <PUBCHEM_CACTVS_HBOND_DONOR>
0

> <PUBCHEM_CACTVS_ROTATABLE_BOND>
0

> <PUBCHEM_CACTVS_SUBSKEYS>
AAADceBwAAAAAAAAAAAAAAAAAABgAAAAAAAgQAAAAAAAAAAAAAAAGAAAAAAADwCAAAACAAAAAACAAiBCAAAAAAAgAAAACAAAAAgAAAIAAQAAAAAAgAAIAAMAgEAPgAAAAAAAAAAAAAAAAAAAAAAAAAAAAA==

> <PUBCHEM_IUPAC_OPENEYE_NAME>
2,6,6-trimethylbicyclo[3.1.1]hept-2-ene

> <PUBCHEM_IUPAC_CAS_NAME>
2,6,6-trimethylbicyclo[3.1.1]hept-2-ene

> <PUBCHEM_IUPAC_NAME>
2,6,6-trimethylbicyclo[3.1.1]hept-2-ene

> <PUBCHEM_IUPAC_SYSTEMATIC_NAME>
2,6,6-trimethylbicyclo[3.1.1]hept-2-ene

> <PUBCHEM_IUPAC_TRADITIONAL_NAME>
2,6,6-trimethylbicyclo[3.1.1]hept-2-ene

> <PUBCHEM_IUPAC_INCHI>
InChI=1S/C10H16/c1-7-4-5-8-6-9(7)10(8,2)3/h4,8-9H,5-6H2,1-3H3

> <PUBCHEM_IUPAC_INCHIKEY>
GRWFGVWFFZKLTI-UHFFFAOYSA-N

> <PUBCHEM_XLOGP3_AA>
2.8

> <PUBCHEM_EXACT_MASS>
136.125

> <PUBCHEM_MOLECULAR_FORMULA>
C10H16

> <PUBCHEM_MOLECULAR_WEIGHT>
136.238

> <PUBCHEM_OPENEYE_CAN_SMILES>
CC1=CCC2CC1C2(C)C

> <PUBCHEM_OPENEYE_ISO_SMILES>
CC1=CCC2CC1C2(C)C

> <PUBCHEM_CACTVS_TPSA>
0

> <PUBCHEM_MONOISOTOPIC_WEIGHT>
136.125

> <PUBCHEM_TOTAL_CHARGE>
0

> <PUBCHEM_HEAVY_ATOM_COUNT>
10

> <PUBCHEM_ATOM_DEF_STEREO_COUNT>
0

> <PUBCHEM_ATOM_UDEF_STEREO_COUNT>
2

> <PUBCHEM_BOND_DEF_STEREO_COUNT>
0

> <PUBCHEM_BOND_UDEF_STEREO_COUNT>
0

> <PUBCHEM_ISOTOPIC_ATOM_COUNT>
0

> <PUBCHEM_COMPONENT_COUNT>
1

> <PUBCHEM_CACTVS_TAUTO_COUNT>
-1

> <PUBCHEM_COORDINATE_TYPE>
1 __ 5 __ 255

> <PUBCHEM_BONDANNOTATIONS>
2  11  3 __ 3  12  3

$$$$
5368821
 OpenBabel02201912233D

 26 25  0  0  0  0  0  0  0  0999 V2000
    1.0033   -0.0763   -0.0226 C   0  0  0  0  0  0  0  0  0  0  0  0
   -3.3608    2.0568    1.0214 C   0  0  0  0  0  0  0  0  0  0  0  0
    0.2582    0.9287    0.4798 C   0  0  0  0  0  0  0  0  0  0  0  0
   -1.9006    2.0188    0.9739 C   0  0  0  0  0  0  0  0  0  0  0  0
   -1.1875    0.9715    0.5270 C   0  0  0  0  0  0  0  0  0  0  0  0
    0.4784   -1.3413   -0.6510 C   0  0  0  0  0  0  0  0  0  0  0  0
    2.5093   -0.0030    0.0013 C   0  0  0  0  0  0  0  0  0  0  0  0
   -3.9579    2.8306    2.1665 C   0  0  0  0  0  0  0  0  0  0  0  0
   -4.1199    1.4774    0.0686 C   0  0  0  0  0  0  0  0  0  0  0  0
   -5.6149    1.4410    0.0070 C   0  0  0  0  0  0  0  0  0  0  0  0
    0.7672    1.7988    0.8948 H   0  0  0  0  0  0  0  0  0  0  0  0
   -1.3885    2.9043    1.3458 H   0  0  0  0  0  0  0  0  0  0  0  0
   -1.7209    0.0938    0.1807 H   0  0  0  0  0  0  0  0  0  0  0  0
    2.8777    0.9224    0.4553 H   0  0  0  0  0  0  0  0  0  0  0  0
    2.9177   -0.8414    0.5754 H   0  0  0  0  0  0  0  0  0  0  0  0
    2.9072   -0.0560   -1.0176 H   0  0  0  0  0  0  0  0  0  0  0  0
    0.8387   -1.4234   -1.6821 H   0  0  0  0  0  0  0  0  0  0  0  0
    0.8327   -2.2130   -0.0912 H   0  0  0  0  0  0  0  0  0  0  0  0
   -0.6106   -1.4030   -0.6895 H   0  0  0  0  0  0  0  0  0  0  0  0
   -4.5613    3.6658    1.7935 H   0  0  0  0  0  0  0  0  0  0  0  0
   -4.5920    2.1814    2.7798 H   0  0  0  0  0  0  0  0  0  0  0  0
   -3.1943    3.2547    2.8270 H   0  0  0  0  0  0  0  0  0  0  0  0
   -3.6383    0.9652   -0.7623 H   0  0  0  0  0  0  0  0  0  0  0  0
   -5.9544    1.8800   -0.9360 H   0  0  0  0  0  0  0  0  0  0  0  0
   -5.9565    0.4015    0.0413 H   0  0  0  0  0  0  0  0  0  0  0  0
   -6.0953    1.9820    0.8250 H   0  0  0  0  0  0  0  0  0  0  0  0
  1  3  2  0  0  0  0
  1  6  1  0  0  0  0
  1  7  1  0  0  0  0
  2  4  1  0  0  0  0
  2  8  1  0  0  0  0
  2  9  2  0  0  0  0
  3  5  1  0  0  0  0
  3 11  1  0  0  0  0
  4  5  2  0  0  0  0
  4 12  1  0  0  0  0
  5 13  1  0  0  0  0
  6 17  1  0  0  0  0
  6 18  1  0  0  0  0
  6 19  1  0  0  0  0
  7 14  1  0  0  0  0
  7 15  1  0  0  0  0
  7 16  1  0  0  0  0
  8 20  1  0  0  0  0
  8 21  1  0  0  0  0
  8 22  1  0  0  0  0
  9 10  1  0  0  0  0
  9 23  1  0  0  0  0
 10 24  1  0  0  0  0
 10 25  1  0  0  0  0
 10 26  1  0  0  0  0
M  END
> <PUBCHEM_COMPOUND_CID>
5368821

> <PUBCHEM_COMPOUND_CANONICALIZED>
1

> <PUBCHEM_CACTVS_COMPLEXITY>
165

> <PUBCHEM_CACTVS_HBOND_ACCEPTOR>
0

> <PUBCHEM_CACTVS_HBOND_DONOR>
0

> <PUBCHEM_CACTVS_ROTATABLE_BOND>
2

> <PUBCHEM_CACTVS_SUBSKEYS>
AAADceBwAAAAAAAAAAAAAAAAAAAAAAAAAAAAAAAAAAAAAAAAAAAAGAAAAAAADACAAAACAAAAAACAAiBCAAAAAAAgAAAICAAAAAgIAAAAAQAAAAAAAAAIgAIAAAAAAAAAAAAAAAAAAAAAAAAAAAAAAAAAAA==

> <PUBCHEM_IUPAC_OPENEYE_NAME>
(4~{E},6~{E})-2,6-dimethylocta-2,4,6-triene

> <PUBCHEM_IUPAC_CAS_NAME>
(4~{E},6~{E})-2,6-dimethylocta-2,4,6-triene

> <PUBCHEM_IUPAC_NAME>
(4~{E},6~{E})-2,6-dimethylocta-2,4,6-triene

> <PUBCHEM_IUPAC_SYSTEMATIC_NAME>
(4~{E},6~{E})-2,6-dimethylocta-2,4,6-triene

> <PUBCHEM_IUPAC_TRADITIONAL_NAME>
(4~{E},6~{E})-2,6-dimethylocta-2,4,6-triene

> <PUBCHEM_IUPAC_INCHI>
InChI=1S/C10H16/c1-5-10(4)8-6-7-9(2)3/h5-8H,1-4H3/b8-6+,10-5+

> <PUBCHEM_IUPAC_INCHIKEY>
GQVMHMFBVWSSPF-SOYUKNQTSA-N

> <PUBCHEM_XLOGP3_AA>
4.2

> <PUBCHEM_EXACT_MASS>
136.125

> <PUBCHEM_MOLECULAR_FORMULA>
C10H16

> <PUBCHEM_MOLECULAR_WEIGHT>
136.238

> <PUBCHEM_OPENEYE_CAN_SMILES>
CC=C(C)C=CC=C(C)C

> <PUBCHEM_OPENEYE_ISO_SMILES>
C/C=C(\C)/C=C/C=C(C)C

> <PUBCHEM_CACTVS_TPSA>
0

> <PUBCHEM_MONOISOTOPIC_WEIGHT>
136.125

> <PUBCHEM_TOTAL_CHARGE>
0

> <PUBCHEM_HEAVY_ATOM_COUNT>
10

> <PUBCHEM_ATOM_DEF_STEREO_COUNT>
0

> <PUBCHEM_ATOM_UDEF_STEREO_COUNT>
0

> <PUBCHEM_BOND_DEF_STEREO_COUNT>
2

> <PUBCHEM_BOND_UDEF_STEREO_COUNT>
0

> <PUBCHEM_ISOTOPIC_ATOM_COUNT>
0

> <PUBCHEM_COMPONENT_COUNT>
1

> <PUBCHEM_CACTVS_TAUTO_COUNT>
-1

> <PUBCHEM_COORDINATE_TYPE>
1 __ 5 __ 255

$$$$
7460
 OpenBabel02201912233D

 26 26  0  0  1  0  0  0  0  0999 V2000
    0.2310   -1.3739    0.0817 C   0  0  3  0  0  0  0  0  0  0  0  0
    0.4123   -2.1101    1.4424 C   0  0  0  0  0  0  0  0  0  0  0  0
   -1.2099   -0.8468   -0.1690 C   0  0  0  0  0  0  0  0  0  0  0  0
    1.2896   -0.3016   -0.0800 C   0  0  0  0  0  0  0  0  0  0  0  0
    0.1326   -1.2241    2.6612 C   0  0  0  0  0  0  0  0  0  0  0  0
   -0.4292   -3.3902    1.5188 C   0  0  0  0  0  0  0  0  0  0  0  0
   -1.3828    0.6461   -0.1055 C   0  0  0  0  0  0  0  0  0  0  0  0
   -0.3483    1.5037   -0.0824 C   0  0  0  0  0  0  0  0  0  0  0  0
    1.0089    1.0073   -0.1547 C   0  0  0  0  0  0  0  0  0  0  0  0
   -0.5329    2.9901   -0.0148 C   0  0  0  0  0  0  0  0  0  0  0  0
    0.4301   -2.1165   -0.7047 H   0  0  0  0  0  0  0  0  0  0  0  0
    1.4626   -2.4281    1.5127 H   0  0  0  0  0  0  0  0  0  0  0  0
   -1.5309   -1.1695   -1.1683 H   0  0  0  0  0  0  0  0  0  0  0  0
   -1.9226   -1.2966    0.5291 H   0  0  0  0  0  0  0  0  0  0  0  0
    2.3257   -0.6266   -0.1317 H   0  0  0  0  0  0  0  0  0  0  0  0
   -0.8942   -0.8465    2.6650 H   0  0  0  0  0  0  0  0  0  0  0  0
    0.2816   -1.7888    3.5882 H   0  0  0  0  0  0  0  0  0  0  0  0
   -0.1842   -4.0644    0.6914 H   0  0  0  0  0  0  0  0  0  0  0  0
   -0.2295   -3.9266    2.4530 H   0  0  0  0  0  0  0  0  0  0  0  0
   -1.5029   -3.1866    1.4846 H   0  0  0  0  0  0  0  0  0  0  0  0
    0.8128   -0.3673    2.6931 H   0  0  0  0  0  0  0  0  0  0  0  0
   -2.4027    1.0170   -0.0805 H   0  0  0  0  0  0  0  0  0  0  0  0
    1.8130    1.7296   -0.2661 H   0  0  0  0  0  0  0  0  0  0  0  0
   -0.0632    3.3942    0.8881 H   0  0  0  0  0  0  0  0  0  0  0  0
   -0.0850    3.4758   -0.8882 H   0  0  0  0  0  0  0  0  0  0  0  0
   -1.5922    3.2690    0.0109 H   0  0  0  0  0  0  0  0  0  0  0  0
  1  2  1  0  0  0  0
  1  3  1  0  0  0  0
  1  4  1  0  0  0  0
  1 11  1  0  0  0  0
  2  5  1  0  0  0  0
  2  6  1  0  0  0  0
  2 12  1  0  0  0  0
  3  7  1  0  0  0  0
  3 13  1  0  0  0  0
  3 14  1  0  0  0  0
  4  9  2  0  0  0  0
  4 15  1  0  0  0  0
  5 16  1  0  0  0  0
  5 17  1  0  0  0  0
  5 21  1  0  0  0  0
  6 18  1  0  0  0  0
  6 19  1  0  0  0  0
  6 20  1  0  0  0  0
  7  8  2  0  0  0  0
  7 22  1  0  0  0  0
  8  9  1  0  0  0  0
  8 10  1  0  0  0  0
  9 23  1  0  0  0  0
 10 24  1  0  0  0  0
 10 25  1  0  0  0  0
 10 26  1  0  0  0  0
M  END
> <PUBCHEM_COMPOUND_CID>
7460

> <PUBCHEM_COMPOUND_CANONICALIZED>
1

> <PUBCHEM_CACTVS_COMPLEXITY>
161

> <PUBCHEM_CACTVS_HBOND_ACCEPTOR>
0

> <PUBCHEM_CACTVS_HBOND_DONOR>
0

> <PUBCHEM_CACTVS_ROTATABLE_BOND>
1

> <PUBCHEM_CACTVS_SUBSKEYS>
AAADceBwAAAAAAAAAAAAAAAAAAAAAAAAAAAgAAAAAAAAAAAAAAAAGAAAAAAADQCAAAACAAAAAACAAiBCAAAAAAAgAAAICAAAAAgIAAIAAQAAAAAAgAAIgAIAAAAOgAAAAAAAAAAAAAAAAAAAAAAAAAAAAA==

> <PUBCHEM_IUPAC_OPENEYE_NAME>
5-isopropyl-2-methyl-cyclohexa-1,3-diene

> <PUBCHEM_IUPAC_CAS_NAME>
2-methyl-5-propan-2-ylcyclohexa-1,3-diene

> <PUBCHEM_IUPAC_NAME>
2-methyl-5-propan-2-ylcyclohexa-1,3-diene

> <PUBCHEM_IUPAC_SYSTEMATIC_NAME>
2-methyl-5-propan-2-yl-cyclohexa-1,3-diene

> <PUBCHEM_IUPAC_TRADITIONAL_NAME>
5-isopropyl-2-methyl-cyclohexa-1,3-diene

> <PUBCHEM_IUPAC_INCHI>
InChI=1S/C10H16/c1-8(2)10-6-4-9(3)5-7-10/h4-6,8,10H,7H2,1-3H3

> <PUBCHEM_IUPAC_INCHIKEY>
OGLDWXZKYODSOB-UHFFFAOYSA-N

> <PUBCHEM_XLOGP3_AA>
3.2

> <PUBCHEM_EXACT_MASS>
136.125

> <PUBCHEM_MOLECULAR_FORMULA>
C10H16

> <PUBCHEM_MOLECULAR_WEIGHT>
136.238

> <PUBCHEM_OPENEYE_CAN_SMILES>
CC1=CCC(C=C1)C(C)C

> <PUBCHEM_OPENEYE_ISO_SMILES>
CC1=CCC(C=C1)C(C)C

> <PUBCHEM_CACTVS_TPSA>
0

> <PUBCHEM_MONOISOTOPIC_WEIGHT>
136.125

> <PUBCHEM_TOTAL_CHARGE>
0

> <PUBCHEM_HEAVY_ATOM_COUNT>
10

> <PUBCHEM_ATOM_DEF_STEREO_COUNT>
0

> <PUBCHEM_ATOM_UDEF_STEREO_COUNT>
1

> <PUBCHEM_BOND_DEF_STEREO_COUNT>
0

> <PUBCHEM_BOND_UDEF_STEREO_COUNT>
0

> <PUBCHEM_ISOTOPIC_ATOM_COUNT>
0

> <PUBCHEM_COMPONENT_COUNT>
1

> <PUBCHEM_CACTVS_TAUTO_COUNT>
-1

> <PUBCHEM_COORDINATE_TYPE>
1 __ 5 __ 255

> <PUBCHEM_BONDANNOTATIONS>
1  11  3

$$$$
21630868
 OpenBabel02201912233D

 25 25  0  0  1  0  0  0  0  0999 V2000
   -0.6784   -0.9381    0.1119 O   0  0  0  0  0  0  0  0  0  0  0  0
   -0.8892    1.4993    2.4881 O   0  0  0  0  0  0  0  0  0  0  0  0
    0.7648   -0.9834    0.1453 C   0  0  1  0  0  0  0  0  0  0  0  0
    1.2544    0.4697    0.2138 C   0  0  0  0  0  0  0  0  0  0  0  0
    0.0371    1.2743   -0.1841 C   0  0  0  0  0  0  0  0  0  0  0  0
   -1.1025    0.4130    0.3201 C   0  0  2  0  0  0  0  0  0  0  0  0
    1.1719   -1.7742    1.3904 C   0  0  0  0  0  0  0  0  0  0  0  0
    1.2936   -1.6843   -1.0871 C   0  0  0  0  0  0  0  0  0  0  0  0
   -1.4308    0.6292    1.8045 C   0  0  0  0  0  0  0  0  0  0  0  0
   -2.5076   -0.2495    2.3881 C   0  0  0  0  0  0  0  0  0  0  0  0
    0.5740   -2.2650   -2.0579 C   0  0  0  0  0  0  0  0  0  0  0  0
    1.5522    0.7376    1.2349 H   0  0  0  0  0  0  0  0  0  0  0  0
    2.1141    0.6815   -0.4316 H   0  0  0  0  0  0  0  0  0  0  0  0
    0.0481    2.2912    0.2189 H   0  0  0  0  0  0  0  0  0  0  0  0
   -0.0089    1.3435   -1.2779 H   0  0  0  0  0  0  0  0  0  0  0  0
   -2.0193    0.6006   -0.2483 H   0  0  0  0  0  0  0  0  0  0  0  0
    0.7765   -2.7967    1.3506 H   0  0  0  0  0  0  0  0  0  0  0  0
    2.2592   -1.8256    1.5041 H   0  0  0  0  0  0  0  0  0  0  0  0
    0.7502   -1.3224    2.2959 H   0  0  0  0  0  0  0  0  0  0  0  0
    2.3787   -1.7261   -1.1721 H   0  0  0  0  0  0  0  0  0  0  0  0
   -3.4753    0.0355    1.9693 H   0  0  0  0  0  0  0  0  0  0  0  0
   -2.2966   -1.2993    2.1714 H   0  0  0  0  0  0  0  0  0  0  0  0
   -2.5335   -0.1233    3.4743 H   0  0  0  0  0  0  0  0  0  0  0  0
    1.0627   -2.7559   -2.8934 H   0  0  0  0  0  0  0  0  0  0  0  0
   -0.5110   -2.2772   -2.0341 H   0  0  0  0  0  0  0  0  0  0  0  0
  1  3  1  0  0  0  0
  1  6  1  0  0  0  0
  2  9  2  0  0  0  0
  3  4  1  0  0  0  0
  3  7  1  0  0  0  0
  3  8  1  6  0  0  0
  4  5  1  0  0  0  0
  4 12  1  0  0  0  0
  4 13  1  0  0  0  0
  5  6  1  0  0  0  0
  5 14  1  0  0  0  0
  5 15  1  0  0  0  0
  6 16  1  6  0  0  0
  6  9  1  0  0  0  0
  7 17  1  0  0  0  0
  7 18  1  0  0  0  0
  7 19  1  0  0  0  0
  8 11  2  0  0  0  0
  8 20  1  0  0  0  0
  9 10  1  0  0  0  0
 10 21  1  0  0  0  0
 10 22  1  0  0  0  0
 10 23  1  0  0  0  0
 11 24  1  0  0  0  0
 11 25  1  0  0  0  0
M  END
> <PUBCHEM_COMPOUND_CID>
21630868

> <PUBCHEM_COMPOUND_CANONICALIZED>
1

> <PUBCHEM_CACTVS_COMPLEXITY>
186

> <PUBCHEM_CACTVS_HBOND_ACCEPTOR>
2

> <PUBCHEM_CACTVS_HBOND_DONOR>
0

> <PUBCHEM_CACTVS_ROTATABLE_BOND>
2

> <PUBCHEM_CACTVS_SUBSKEYS>
AAADccBwMAAAAAAAAAAAAAAAAAAAASAAAAAAAAAAAAAAAAAAAAAAGgAAAAAADFSggAICAAAABACIAKBSAAIAAAAgAAAIAAFAAAgABBIAIAQCAAAEgAAAIAGIzEBMAAAAAAAAAAAAAAAAAAAAAAAAAAAAAA==

> <PUBCHEM_IUPAC_OPENEYE_NAME>
1-[(2~{R},5~{R})-5-methyl-5-vinyl-tetrahydrofuran-2-yl]ethanone

> <PUBCHEM_IUPAC_CAS_NAME>
1-[(2~{R},5~{R})-5-ethenyl-5-methyl-2-oxolanyl]ethanone

> <PUBCHEM_IUPAC_NAME>
1-[(2~{R},5~{R})-5-ethenyl-5-methyloxolan-2-yl]ethanone

> <PUBCHEM_IUPAC_SYSTEMATIC_NAME>
1-[(2~{R},5~{R})-5-ethenyl-5-methyl-oxolan-2-yl]ethanone

> <PUBCHEM_IUPAC_TRADITIONAL_NAME>
1-[(2~{R},5~{R})-5-methyl-5-vinyl-tetrahydrofuran-2-yl]ethanone

> <PUBCHEM_IUPAC_INCHI>
InChI=1S/C9H14O2/c1-4-9(3)6-5-8(11-9)7(2)10/h4,8H,1,5-6H2,2-3H3/t8-,9+/m1/s1

> <PUBCHEM_IUPAC_INCHIKEY>
FBFSXARBCWGXJL-BDAKNGLRSA-N

> <PUBCHEM_XLOGP3_AA>
1.2

> <PUBCHEM_EXACT_MASS>
154.099

> <PUBCHEM_MOLECULAR_FORMULA>
C9H14O2

> <PUBCHEM_MOLECULAR_WEIGHT>
154.209

> <PUBCHEM_OPENEYE_CAN_SMILES>
CC(=O)C1CCC(O1)(C)C=C

> <PUBCHEM_OPENEYE_ISO_SMILES>
CC(=O)[C@H]1CC[C@](O1)(C)C=C

> <PUBCHEM_CACTVS_TPSA>
26.3

> <PUBCHEM_MONOISOTOPIC_WEIGHT>
154.099

> <PUBCHEM_TOTAL_CHARGE>
0

> <PUBCHEM_HEAVY_ATOM_COUNT>
11

> <PUBCHEM_ATOM_DEF_STEREO_COUNT>
2

> <PUBCHEM_ATOM_UDEF_STEREO_COUNT>
0

> <PUBCHEM_BOND_DEF_STEREO_COUNT>
0

> <PUBCHEM_BOND_UDEF_STEREO_COUNT>
0

> <PUBCHEM_ISOTOPIC_ATOM_COUNT>
0

> <PUBCHEM_COMPONENT_COUNT>
1

> <PUBCHEM_CACTVS_TAUTO_COUNT>
-1

> <PUBCHEM_COORDINATE_TYPE>
1 __ 5 __ 255

> <PUBCHEM_BONDANNOTATIONS>
3  7  5 __ 6  9  5

$$$$
7462
 OpenBabel02201912233D

 26 26  0  0  0  0  0  0  0  0999 V2000
    1.3317   -0.3955    0.0058 C   0  0  0  0  0  0  0  0  0  0  0  0
    2.7862   -0.8452   -0.0005 C   0  0  0  0  0  0  0  0  0  0  0  0
    0.2536   -1.4593    0.0384 C   0  0  0  0  0  0  0  0  0  0  0  0
   -1.2045   -0.9649   -0.0338 C   0  0  0  0  0  0  0  0  0  0  0  0
   -1.3987    0.5282   -0.0076 C   0  0  0  0  0  0  0  0  0  0  0  0
    1.0089    0.9103   -0.0065 C   0  0  0  0  0  0  0  0  0  0  0  0
    3.1356   -1.6751    1.2367 C   0  0  0  0  0  0  0  0  0  0  0  0
    3.1407   -1.6067   -1.2798 C   0  0  0  0  0  0  0  0  0  0  0  0
   -0.3555    1.3724    0.0085 C   0  0  0  0  0  0  0  0  0  0  0  0
   -2.8123    1.0291   -0.0091 C   0  0  0  0  0  0  0  0  0  0  0  0
    3.4307    0.0446    0.0251 H   0  0  0  0  0  0  0  0  0  0  0  0
    0.3631   -2.0444    0.9602 H   0  0  0  0  0  0  0  0  0  0  0  0
    0.4091   -2.1599   -0.7898 H   0  0  0  0  0  0  0  0  0  0  0  0
   -1.6608   -1.3580   -0.9513 H   0  0  0  0  0  0  0  0  0  0  0  0
   -1.7596   -1.4099    0.8019 H   0  0  0  0  0  0  0  0  0  0  0  0
    1.7784    1.6779   -0.0256 H   0  0  0  0  0  0  0  0  0  0  0  0
    2.9215   -1.0037   -2.1680 H   0  0  0  0  0  0  0  0  0  0  0  0
    4.2086   -1.8505   -1.2984 H   0  0  0  0  0  0  0  0  0  0  0  0
    2.5885   -2.5485   -1.3634 H   0  0  0  0  0  0  0  0  0  0  0  0
    2.5893   -2.6229    1.2632 H   0  0  0  0  0  0  0  0  0  0  0  0
    4.2058   -1.9127    1.2496 H   0  0  0  0  0  0  0  0  0  0  0  0
    2.9075   -1.1231    2.1553 H   0  0  0  0  0  0  0  0  0  0  0  0
   -0.5097    2.4481    0.0251 H   0  0  0  0  0  0  0  0  0  0  0  0
   -3.0072    1.6435    0.8760 H   0  0  0  0  0  0  0  0  0  0  0  0
   -3.0098    1.6224   -0.9076 H   0  0  0  0  0  0  0  0  0  0  0  0
   -3.5273    0.1996    0.0017 H   0  0  0  0  0  0  0  0  0  0  0  0
  1  2  1  0  0  0  0
  1  3  1  0  0  0  0
  1  6  2  0  0  0  0
  2  7  1  0  0  0  0
  2  8  1  0  0  0  0
  2 11  1  0  0  0  0
  3  4  1  0  0  0  0
  3 12  1  0  0  0  0
  3 13  1  0  0  0  0
  4  5  1  0  0  0  0
  4 14  1  0  0  0  0
  4 15  1  0  0  0  0
  5  9  2  0  0  0  0
  5 10  1  0  0  0  0
  6  9  1  0  0  0  0
  6 16  1  0  0  0  0
  7 20  1  0  0  0  0
  7 21  1  0  0  0  0
  7 22  1  0  0  0  0
  8 17  1  0  0  0  0
  8 18  1  0  0  0  0
  8 19  1  0  0  0  0
  9 23  1  0  0  0  0
 10 24  1  0  0  0  0
 10 25  1  0  0  0  0
 10 26  1  0  0  0  0
M  END
> <PUBCHEM_COMPOUND_CID>
7462

> <PUBCHEM_COMPOUND_CANONICALIZED>
1

> <PUBCHEM_CACTVS_COMPLEXITY>
171

> <PUBCHEM_CACTVS_HBOND_ACCEPTOR>
0

> <PUBCHEM_CACTVS_HBOND_DONOR>
0

> <PUBCHEM_CACTVS_ROTATABLE_BOND>
1

> <PUBCHEM_CACTVS_SUBSKEYS>
AAADceBwAAAAAAAAAAAAAAAAAAAAAAAAAAAgAAAAAAAAAAAAAAAAGAAAAAAADQCAAAACAAAAAACAAiBCAAAAAAAgAAAACAAAAAgIAAIAAQAAAAAAgAAIgAMAgEAMAAAAAAAAAAAAAAAAAAAAAAAAAAAAAA==

> <PUBCHEM_IUPAC_OPENEYE_NAME>
1-isopropyl-4-methyl-cyclohexa-1,3-diene

> <PUBCHEM_IUPAC_CAS_NAME>
1-methyl-4-propan-2-ylcyclohexa-1,3-diene

> <PUBCHEM_IUPAC_NAME>
1-methyl-4-propan-2-ylcyclohexa-1,3-diene

> <PUBCHEM_IUPAC_SYSTEMATIC_NAME>
1-methyl-4-propan-2-yl-cyclohexa-1,3-diene

> <PUBCHEM_IUPAC_TRADITIONAL_NAME>
1-isopropyl-4-methyl-cyclohexa-1,3-diene

> <PUBCHEM_IUPAC_INCHI>
InChI=1S/C10H16/c1-8(2)10-6-4-9(3)5-7-10/h4,6,8H,5,7H2,1-3H3

> <PUBCHEM_IUPAC_INCHIKEY>
YHQGMYUVUMAZJR-UHFFFAOYSA-N

> <PUBCHEM_XLOGP3_AA>
2.8

> <PUBCHEM_EXACT_MASS>
136.125

> <PUBCHEM_MOLECULAR_FORMULA>
C10H16

> <PUBCHEM_MOLECULAR_WEIGHT>
136.238

> <PUBCHEM_OPENEYE_CAN_SMILES>
CC1=CC=C(CC1)C(C)C

> <PUBCHEM_OPENEYE_ISO_SMILES>
CC1=CC=C(CC1)C(C)C

> <PUBCHEM_CACTVS_TPSA>
0

> <PUBCHEM_MONOISOTOPIC_WEIGHT>
136.125

> <PUBCHEM_TOTAL_CHARGE>
0

> <PUBCHEM_HEAVY_ATOM_COUNT>
10

> <PUBCHEM_ATOM_DEF_STEREO_COUNT>
0

> <PUBCHEM_ATOM_UDEF_STEREO_COUNT>
0

> <PUBCHEM_BOND_DEF_STEREO_COUNT>
0

> <PUBCHEM_BOND_UDEF_STEREO_COUNT>
0

> <PUBCHEM_ISOTOPIC_ATOM_COUNT>
0

> <PUBCHEM_COMPONENT_COUNT>
1

> <PUBCHEM_CACTVS_TAUTO_COUNT>
-1

> <PUBCHEM_COORDINATE_TYPE>
1 __ 5 __ 255

$$$$
17100
 OpenBabel02201912233D

 29 29  0  0  1  0  0  0  0  0999 V2000
    1.5563   -0.7766   -0.0550 O   0  0  0  0  0  0  0  0  0  0  0  0
    1.0540    0.1241   -2.2565 C   0  0  3  0  0  0  0  0  0  0  0  0
    0.5075   -0.6925   -1.0393 C   0  0  0  0  0  0  0  0  0  0  0  0
    1.6019    1.5203   -1.8686 C   0  0  0  0  0  0  0  0  0  0  0  0
    0.1520    0.1041   -3.5073 C   0  0  0  0  0  0  0  0  0  0  0  0
    0.8351    2.7663   -2.3258 C   0  0  0  0  0  0  0  0  0  0  0  0
   -0.1666    2.5900   -3.4256 C   0  0  0  0  0  0  0  0  0  0  0  0
   -0.4571    1.3885   -3.9454 C   0  0  0  0  0  0  0  0  0  0  0  0
    0.1551   -2.1440   -1.4069 C   0  0  0  0  0  0  0  0  0  0  0  0
   -0.6880   -0.0363   -0.3482 C   0  0  0  0  0  0  0  0  0  0  0  0
   -0.8350    3.8276   -3.9493 C   0  0  0  0  0  0  0  0  0  0  0  0
    1.9569   -0.4354   -2.5504 H   0  0  0  0  0  0  0  0  0  0  0  0
    1.7494    1.5972   -0.7837 H   0  0  0  0  0  0  0  0  0  0  0  0
    2.6181    1.5965   -2.2798 H   0  0  0  0  0  0  0  0  0  0  0  0
    0.7500   -0.2667   -4.3508 H   0  0  0  0  0  0  0  0  0  0  0  0
   -0.6667   -0.6120   -3.3942 H   0  0  0  0  0  0  0  0  0  0  0  0
    0.3262    3.2117   -1.4611 H   0  0  0  0  0  0  0  0  0  0  0  0
    1.5778    3.5072   -2.6536 H   0  0  0  0  0  0  0  0  0  0  0  0
   -1.1814    1.3222   -4.7501 H   0  0  0  0  0  0  0  0  0  0  0  0
   -0.0602   -2.7308   -0.5058 H   0  0  0  0  0  0  0  0  0  0  0  0
   -0.7176   -2.2185   -2.0612 H   0  0  0  0  0  0  0  0  0  0  0  0
    1.0006   -2.6374   -1.8998 H   0  0  0  0  0  0  0  0  0  0  0  0
   -0.9383   -0.5760    0.5743 H   0  0  0  0  0  0  0  0  0  0  0  0
   -0.4625    0.9891   -0.0393 H   0  0  0  0  0  0  0  0  0  0  0  0
   -1.5746   -0.0225   -0.9884 H   0  0  0  0  0  0  0  0  0  0  0  0
    2.3034   -1.2516   -0.4550 H   0  0  0  0  0  0  0  0  0  0  0  0
   -0.7492    3.8832   -5.0388 H   0  0  0  0  0  0  0  0  0  0  0  0
   -1.8959    3.8347   -3.6784 H   0  0  0  0  0  0  0  0  0  0  0  0
   -0.3781    4.7351   -3.5400 H   0  0  0  0  0  0  0  0  0  0  0  0
  1  3  1  0  0  0  0
  1 26  1  0  0  0  0
  2  3  1  0  0  0  0
  2  4  1  0  0  0  0
  2  5  1  0  0  0  0
  2 12  1  0  0  0  0
  3  9  1  0  0  0  0
  3 10  1  0  0  0  0
  4  6  1  0  0  0  0
  4 13  1  0  0  0  0
  4 14  1  0  0  0  0
  5  8  1  0  0  0  0
  5 15  1  0  0  0  0
  5 16  1  0  0  0  0
  6  7  1  0  0  0  0
  6 17  1  0  0  0  0
  6 18  1  0  0  0  0
  7  8  2  0  0  0  0
  7 11  1  0  0  0  0
  8 19  1  0  0  0  0
  9 20  1  0  0  0  0
  9 21  1  0  0  0  0
  9 22  1  0  0  0  0
 10 23  1  0  0  0  0
 10 24  1  0  0  0  0
 10 25  1  0  0  0  0
 11 27  1  0  0  0  0
 11 28  1  0  0  0  0
 11 29  1  0  0  0  0
M  END
> <PUBCHEM_COMPOUND_CID>
17100

> <PUBCHEM_COMPOUND_CANONICALIZED>
1

> <PUBCHEM_CACTVS_COMPLEXITY>
168

> <PUBCHEM_CACTVS_HBOND_ACCEPTOR>
1

> <PUBCHEM_CACTVS_HBOND_DONOR>
1

> <PUBCHEM_CACTVS_ROTATABLE_BOND>
1

> <PUBCHEM_CACTVS_SUBSKEYS>
AAADceBwIAAAAAAAAAAAAAAAAAAAAAAAAAAgAAAAAAAAAAAAAAAAGgAACAAADUSAgAACAAAAAgCAAiBCAAAAAAAgAAAACAAAAAgAAAIAAQAAQAAEgAAIAAOAwEAOgAAAAAAAAAAAAAAAAAAAAAAAAAAAAA==

> <PUBCHEM_IUPAC_OPENEYE_NAME>
2-(4-methylcyclohex-3-en-1-yl)propan-2-ol

> <PUBCHEM_IUPAC_CAS_NAME>
2-(4-methyl-1-cyclohex-3-enyl)-2-propanol

> <PUBCHEM_IUPAC_NAME>
2-(4-methylcyclohex-3-en-1-yl)propan-2-ol

> <PUBCHEM_IUPAC_SYSTEMATIC_NAME>
2-(4-methylcyclohex-3-en-1-yl)propan-2-ol

> <PUBCHEM_IUPAC_TRADITIONAL_NAME>
2-(4-methylcyclohex-3-en-1-yl)propan-2-ol

> <PUBCHEM_IUPAC_INCHI>
InChI=1S/C10H18O/c1-8-4-6-9(7-5-8)10(2,3)11/h4,9,11H,5-7H2,1-3H3

> <PUBCHEM_IUPAC_INCHIKEY>
WUOACPNHFRMFPN-UHFFFAOYSA-N

> <PUBCHEM_XLOGP3_AA>
1.8

> <PUBCHEM_EXACT_MASS>
154.136

> <PUBCHEM_MOLECULAR_FORMULA>
C10H18O

> <PUBCHEM_MOLECULAR_WEIGHT>
154.253

> <PUBCHEM_OPENEYE_CAN_SMILES>
CC1=CCC(CC1)C(C)(C)O

> <PUBCHEM_OPENEYE_ISO_SMILES>
CC1=CCC(CC1)C(C)(C)O

> <PUBCHEM_CACTVS_TPSA>
20.2

> <PUBCHEM_MONOISOTOPIC_WEIGHT>
154.136

> <PUBCHEM_TOTAL_CHARGE>
0

> <PUBCHEM_HEAVY_ATOM_COUNT>
11

> <PUBCHEM_ATOM_DEF_STEREO_COUNT>
0

> <PUBCHEM_ATOM_UDEF_STEREO_COUNT>
1

> <PUBCHEM_BOND_DEF_STEREO_COUNT>
0

> <PUBCHEM_BOND_UDEF_STEREO_COUNT>
0

> <PUBCHEM_ISOTOPIC_ATOM_COUNT>
0

> <PUBCHEM_COMPONENT_COUNT>
1

> <PUBCHEM_CACTVS_TAUTO_COUNT>
-1

> <PUBCHEM_COORDINATE_TYPE>
1 __ 5 __ 255

> <PUBCHEM_BONDANNOTATIONS>
2  3  3

$$$$
17868
 OpenBabel02201912233D

 26 27  0  0  1  0  0  0  0  0999 V2000
   -0.0268    1.0849   -0.0564 C   0  0  3  0  0  0  0  0  0  0  0  0
    0.5148   -0.2684    0.4496 C   0  0  3  0  0  0  0  0  0  0  0  0
    1.1041    0.3385   -0.7693 C   0  0  0  0  0  0  0  0  0  0  0  0
   -1.5155    0.8024   -0.3298 C   0  0  0  0  0  0  0  0  0  0  0  0
    0.3724    2.5364    0.2280 C   0  0  0  0  0  0  0  0  0  0  0  0
   -0.5791   -1.2563    0.2338 C   0  0  0  0  0  0  0  0  0  0  0  0
   -1.7175   -0.6744   -0.1884 C   0  0  0  0  0  0  0  0  0  0  0  0
   -0.6781    3.5374   -0.2838 C   0  0  0  0  0  0  0  0  0  0  0  0
    0.7067    2.8304    1.6822 C   0  0  0  0  0  0  0  0  0  0  0  0
   -0.3749   -2.7288    0.2443 C   0  0  0  0  0  0  0  0  0  0  0  0
    1.0612   -0.3087    1.3812 H   0  0  0  0  0  0  0  0  0  0  0  0
    0.8944   -0.0905   -1.7441 H   0  0  0  0  0  0  0  0  0  0  0  0
    2.1216    0.6842   -0.6726 H   0  0  0  0  0  0  0  0  0  0  0  0
   -2.1485    1.3064    0.4127 H   0  0  0  0  0  0  0  0  0  0  0  0
   -1.7907    1.1323   -1.3350 H   0  0  0  0  0  0  0  0  0  0  0  0
    1.2801    2.7566   -0.3512 H   0  0  0  0  0  0  0  0  0  0  0  0
   -2.6166   -1.1912   -0.4886 H   0  0  0  0  0  0  0  0  0  0  0  0
   -1.5955    3.4979    0.3090 H   0  0  0  0  0  0  0  0  0  0  0  0
   -0.2947    4.5649   -0.2305 H   0  0  0  0  0  0  0  0  0  0  0  0
   -0.9348    3.3374   -1.3278 H   0  0  0  0  0  0  0  0  0  0  0  0
    1.5705    2.2481    2.0137 H   0  0  0  0  0  0  0  0  0  0  0  0
    0.9662    3.8905    1.8007 H   0  0  0  0  0  0  0  0  0  0  0  0
   -0.1356    2.6103    2.3457 H   0  0  0  0  0  0  0  0  0  0  0  0
   -0.7817   -3.1653    1.1596 H   0  0  0  0  0  0  0  0  0  0  0  0
   -0.8869   -3.1911   -0.6067 H   0  0  0  0  0  0  0  0  0  0  0  0
    0.6828   -2.9898    0.1630 H   0  0  0  0  0  0  0  0  0  0  0  0
  1  2  1  0  0  0  0
  1  3  1  0  0  0  0
  1  4  1  0  0  0  0
  1  5  1  0  0  0  0
  2  3  1  0  0  0  0
  2  6  1  0  0  0  0
  2 11  1  0  0  0  0
  3 12  1  0  0  0  0
  3 13  1  0  0  0  0
  4  7  1  0  0  0  0
  4 14  1  0  0  0  0
  4 15  1  0  0  0  0
  5  8  1  0  0  0  0
  5  9  1  0  0  0  0
  5 16  1  0  0  0  0
  6  7  2  0  0  0  0
  6 10  1  0  0  0  0
  7 17  1  0  0  0  0
  8 18  1  0  0  0  0
  8 19  1  0  0  0  0
  8 20  1  0  0  0  0
  9 21  1  0  0  0  0
  9 22  1  0  0  0  0
  9 23  1  0  0  0  0
 10 24  1  0  0  0  0
 10 25  1  0  0  0  0
 10 26  1  0  0  0  0
M  END
> <PUBCHEM_COMPOUND_CID>
17868

> <PUBCHEM_COMPOUND_CANONICALIZED>
1

> <PUBCHEM_CACTVS_COMPLEXITY>
188

> <PUBCHEM_CACTVS_HBOND_ACCEPTOR>
0

> <PUBCHEM_CACTVS_HBOND_DONOR>
0

> <PUBCHEM_CACTVS_ROTATABLE_BOND>
1

> <PUBCHEM_CACTVS_SUBSKEYS>
AAADceBwAAAAAAAAAAAAAAAAGAAAAQAAAAAgAAAAAAAAAAAAAAAAGAAAAAAADwCAAAACAAAAAACAAiBCAAAAAAAgAAAACAAAAAgAAAIAAQAAAAAAgAAIAAMAgEAPgAAAAAAAAAAAAAAAAAAAAAAAAAAAAA==

> <PUBCHEM_IUPAC_OPENEYE_NAME>
5-isopropyl-2-methyl-bicyclo[3.1.0]hex-2-ene

> <PUBCHEM_IUPAC_CAS_NAME>
2-methyl-5-propan-2-ylbicyclo[3.1.0]hex-2-ene

> <PUBCHEM_IUPAC_NAME>
2-methyl-5-propan-2-ylbicyclo[3.1.0]hex-2-ene

> <PUBCHEM_IUPAC_SYSTEMATIC_NAME>
2-methyl-5-propan-2-yl-bicyclo[3.1.0]hex-2-ene

> <PUBCHEM_IUPAC_TRADITIONAL_NAME>
5-isopropyl-2-methyl-bicyclo[3.1.0]hex-2-ene

> <PUBCHEM_IUPAC_INCHI>
InChI=1S/C10H16/c1-7(2)10-5-4-8(3)9(10)6-10/h4,7,9H,5-6H2,1-3H3

> <PUBCHEM_IUPAC_INCHIKEY>
KQAZVFVOEIRWHN-UHFFFAOYSA-N

> <PUBCHEM_XLOGP3_AA>
2.8

> <PUBCHEM_EXACT_MASS>
136.125

> <PUBCHEM_MOLECULAR_FORMULA>
C10H16

> <PUBCHEM_MOLECULAR_WEIGHT>
136.238

> <PUBCHEM_OPENEYE_CAN_SMILES>
CC1=CCC2(C1C2)C(C)C

> <PUBCHEM_OPENEYE_ISO_SMILES>
CC1=CCC2(C1C2)C(C)C

> <PUBCHEM_CACTVS_TPSA>
0

> <PUBCHEM_MONOISOTOPIC_WEIGHT>
136.125

> <PUBCHEM_TOTAL_CHARGE>
0

> <PUBCHEM_HEAVY_ATOM_COUNT>
10

> <PUBCHEM_ATOM_DEF_STEREO_COUNT>
0

> <PUBCHEM_ATOM_UDEF_STEREO_COUNT>
2

> <PUBCHEM_BOND_DEF_STEREO_COUNT>
0

> <PUBCHEM_BOND_UDEF_STEREO_COUNT>
0

> <PUBCHEM_ISOTOPIC_ATOM_COUNT>
0

> <PUBCHEM_COMPONENT_COUNT>
1

> <PUBCHEM_CACTVS_TAUTO_COUNT>
-1

> <PUBCHEM_COORDINATE_TYPE>
1 __ 5 __ 255

> <PUBCHEM_BONDANNOTATIONS>
1  2  3 __ 2  3  3

$$$$
7463
 OpenBabel02201912233D

 24 24  0  0  0  0  0  0  0  0999 V2000
    0.8815    0.0076    0.0993 C   0  0  0  0  0  0  0  0  0  0  0  0
    0.3582    1.4308    0.1713 C   0  0  0  0  0  0  0  0  0  0  0  0
    0.4482   -0.6703   -1.2044 C   0  0  0  0  0  0  0  0  0  0  0  0
    0.4598   -0.8236    1.3124 C   0  0  0  0  0  0  0  0  0  0  0  0
   -1.0157    1.7117    0.1612 C   0  0  0  0  0  0  0  0  0  0  0  0
    1.2581    2.5047    0.2109 C   0  0  0  0  0  0  0  0  0  0  0  0
   -0.5718    4.0989    0.1713 C   0  0  0  0  0  0  0  0  0  0  0  0
   -1.4750    3.0313    0.1576 C   0  0  0  0  0  0  0  0  0  0  0  0
    0.7988    3.8250    0.2087 C   0  0  0  0  0  0  0  0  0  0  0  0
   -1.0774    5.5089    0.1094 C   0  0  0  0  0  0  0  0  0  0  0  0
    1.9789    0.0381    0.0962 H   0  0  0  0  0  0  0  0  0  0  0  0
    0.9003   -1.6643   -1.2916 H   0  0  0  0  0  0  0  0  0  0  0  0
   -0.6388   -0.7935   -1.2609 H   0  0  0  0  0  0  0  0  0  0  0  0
    0.7620   -0.0814   -2.0738 H   0  0  0  0  0  0  0  0  0  0  0  0
    0.8961   -1.8270    1.2612 H   0  0  0  0  0  0  0  0  0  0  0  0
    0.8013   -0.3573    2.2434 H   0  0  0  0  0  0  0  0  0  0  0  0
   -0.6285   -0.9372    1.3751 H   0  0  0  0  0  0  0  0  0  0  0  0
   -1.7437    0.9049    0.1367 H   0  0  0  0  0  0  0  0  0  0  0  0
    2.3310    2.3233    0.2268 H   0  0  0  0  0  0  0  0  0  0  0  0
   -2.5453    3.2210    0.1294 H   0  0  0  0  0  0  0  0  0  0  0  0
    1.5222    4.6364    0.2236 H   0  0  0  0  0  0  0  0  0  0  0  0
   -1.5718    5.6860   -0.8510 H   0  0  0  0  0  0  0  0  0  0  0  0
   -1.7892    5.6943    0.9200 H   0  0  0  0  0  0  0  0  0  0  0  0
   -0.2623    6.2331    0.2074 H   0  0  0  0  0  0  0  0  0  0  0  0
  1  2  1  0  0  0  0
  1  3  1  0  0  0  0
  1  4  1  0  0  0  0
  1 11  1  0  0  0  0
  2  5  2  0  0  0  0
  2  6  1  0  0  0  0
  3 12  1  0  0  0  0
  3 13  1  0  0  0  0
  3 14  1  0  0  0  0
  4 15  1  0  0  0  0
  4 16  1  0  0  0  0
  4 17  1  0  0  0  0
  5  8  1  0  0  0  0
  5 18  1  0  0  0  0
  6  9  2  0  0  0  0
  6 19  1  0  0  0  0
  7  8  2  0  0  0  0
  7  9  1  0  0  0  0
  7 10  1  0  0  0  0
  8 20  1  0  0  0  0
  9 21  1  0  0  0  0
 10 22  1  0  0  0  0
 10 23  1  0  0  0  0
 10 24  1  0  0  0  0
M  END
> <PUBCHEM_COMPOUND_CID>
7463

> <PUBCHEM_COMPOUND_CANONICALIZED>
1

> <PUBCHEM_CACTVS_COMPLEXITY>
86.2

> <PUBCHEM_CACTVS_HBOND_ACCEPTOR>
0

> <PUBCHEM_CACTVS_HBOND_DONOR>
0

> <PUBCHEM_CACTVS_ROTATABLE_BOND>
1

> <PUBCHEM_CACTVS_SUBSKEYS>
AAADccBwAAAAAAAAAAAAAAAAAAAAAAAAAAAwAAAAAAAAAAABAAAAGAAAAAAADQCAGAAyAIAAAACAAiBCAAACAAAgAAAIiAAAAIgIICKAERCAIAAggAAIiAcAgMAOwAAAAAAAAACAAAAAAAAAAAAAAAAAAA==

> <PUBCHEM_IUPAC_OPENEYE_NAME>
1-isopropyl-4-methyl-benzene

> <PUBCHEM_IUPAC_CAS_NAME>
1-methyl-4-propan-2-ylbenzene

> <PUBCHEM_IUPAC_NAME>
1-methyl-4-propan-2-ylbenzene

> <PUBCHEM_IUPAC_SYSTEMATIC_NAME>
1-methyl-4-propan-2-yl-benzene

> <PUBCHEM_IUPAC_TRADITIONAL_NAME>
p-cymene

> <PUBCHEM_IUPAC_INCHI>
InChI=1S/C10H14/c1-8(2)10-6-4-9(3)5-7-10/h4-8H,1-3H3

> <PUBCHEM_IUPAC_INCHIKEY>
HFPZCAJZSCWRBC-UHFFFAOYSA-N

> <PUBCHEM_XLOGP3>
4.1

> <PUBCHEM_EXACT_MASS>
134.11

> <PUBCHEM_MOLECULAR_FORMULA>
C10H14

> <PUBCHEM_MOLECULAR_WEIGHT>
134.222

> <PUBCHEM_OPENEYE_CAN_SMILES>
CC1=CC=C(C=C1)C(C)C

> <PUBCHEM_OPENEYE_ISO_SMILES>
CC1=CC=C(C=C1)C(C)C

> <PUBCHEM_CACTVS_TPSA>
0

> <PUBCHEM_MONOISOTOPIC_WEIGHT>
134.11

> <PUBCHEM_TOTAL_CHARGE>
0

> <PUBCHEM_HEAVY_ATOM_COUNT>
10

> <PUBCHEM_ATOM_DEF_STEREO_COUNT>
0

> <PUBCHEM_ATOM_UDEF_STEREO_COUNT>
0

> <PUBCHEM_BOND_DEF_STEREO_COUNT>
0

> <PUBCHEM_BOND_UDEF_STEREO_COUNT>
0

> <PUBCHEM_ISOTOPIC_ATOM_COUNT>
0

> <PUBCHEM_COMPONENT_COUNT>
1

> <PUBCHEM_CACTVS_TAUTO_COUNT>
-1

> <PUBCHEM_COORDINATE_TYPE>
1 __ 5 __ 255

> <PUBCHEM_BONDANNOTATIONS>
2  5  8 __ 2  6  8 __ 5  8  8 __ 6  9  8 __ 7  8  8 __ 7  9  8

$$$$
31253
 OpenBabel02201912233D

 26 25  0  0  0  0  0  0  0  0999 V2000
    0.9840   -0.0417   -0.1321 C   0  0  0  0  0  0  0  0  0  0  0  0
    0.4628    0.4955   -1.4709 C   0  0  0  0  0  0  0  0  0  0  0  0
    0.4440   -1.4210    0.1442 C   0  0  0  0  0  0  0  0  0  0  0  0
   -0.3400   -1.7864    1.1780 C   0  0  0  0  0  0  0  0  0  0  0  0
    1.0279    1.8650   -1.7928 C   0  0  0  0  0  0  0  0  0  0  0  0
   -0.8174   -3.2033    1.3269 C   0  0  0  0  0  0  0  0  0  0  0  0
   -0.7974   -0.8292    2.2435 C   0  0  0  0  0  0  0  0  0  0  0  0
    2.3034    1.9989   -2.4815 C   0  0  0  0  0  0  0  0  0  0  0  0
    0.3352    2.9681   -1.4599 C   0  0  0  0  0  0  0  0  0  0  0  0
    3.1058    1.0045   -2.8808 C   0  0  0  0  0  0  0  0  0  0  0  0
    0.7189    0.6586    0.6682 H   0  0  0  0  0  0  0  0  0  0  0  0
    2.0783   -0.0999   -0.1421 H   0  0  0  0  0  0  0  0  0  0  0  0
    0.6729   -0.2099   -2.2850 H   0  0  0  0  0  0  0  0  0  0  0  0
   -0.6348    0.5513   -1.4291 H   0  0  0  0  0  0  0  0  0  0  0  0
    0.7390   -2.1779   -0.5815 H   0  0  0  0  0  0  0  0  0  0  0  0
    0.0598   -0.4078    2.7795 H   0  0  0  0  0  0  0  0  0  0  0  0
   -1.3874   -0.0156    1.8082 H   0  0  0  0  0  0  0  0  0  0  0  0
   -0.4635   -3.6253    2.2727 H   0  0  0  0  0  0  0  0  0  0  0  0
   -1.9116   -3.2361    1.3171 H   0  0  0  0  0  0  0  0  0  0  0  0
   -0.4592   -3.8489    0.5184 H   0  0  0  0  0  0  0  0  0  0  0  0
   -1.4297   -1.3308    2.9833 H   0  0  0  0  0  0  0  0  0  0  0  0
    2.6304    3.0162   -2.6932 H   0  0  0  0  0  0  0  0  0  0  0  0
   -0.6207    2.8994   -0.9482 H   0  0  0  0  0  0  0  0  0  0  0  0
    0.6977    3.9685   -1.6747 H   0  0  0  0  0  0  0  0  0  0  0  0
    4.0367    1.2302   -3.3936 H   0  0  0  0  0  0  0  0  0  0  0  0
    2.8818   -0.0431   -2.7222 H   0  0  0  0  0  0  0  0  0  0  0  0
  1  2  1  0  0  0  0
  1  3  1  0  0  0  0
  1 11  1  0  0  0  0
  1 12  1  0  0  0  0
  2  5  1  0  0  0  0
  2 13  1  0  0  0  0
  2 14  1  0  0  0  0
  3  4  2  0  0  0  0
  3 15  1  0  0  0  0
  4  6  1  0  0  0  0
  4  7  1  0  0  0  0
  5  8  1  0  0  0  0
  5  9  2  0  0  0  0
  6 18  1  0  0  0  0
  6 19  1  0  0  0  0
  6 20  1  0  0  0  0
  7 16  1  0  0  0  0
  7 17  1  0  0  0  0
  7 21  1  0  0  0  0
  8 10  2  0  0  0  0
  8 22  1  0  0  0  0
  9 23  1  0  0  0  0
  9 24  1  0  0  0  0
 10 25  1  0  0  0  0
 10 26  1  0  0  0  0
M  END
> <PUBCHEM_COMPOUND_CID>
31253

> <PUBCHEM_COMPOUND_CANONICALIZED>
1

> <PUBCHEM_CACTVS_COMPLEXITY>
145

> <PUBCHEM_CACTVS_HBOND_ACCEPTOR>
0

> <PUBCHEM_CACTVS_HBOND_DONOR>
0

> <PUBCHEM_CACTVS_ROTATABLE_BOND>
4

> <PUBCHEM_CACTVS_SUBSKEYS>
AAADceBwAAAAAAAAAAAAAAAAAAAAAAAAAAAAAAAAAAAAAAAAAAAAGAAAAAAADACAAAACAAAAAACAAiBCAAAAAAAgAAAICAAAAAgIAAIAAQAAAAAAgAAIAAIAAAAAAAAAAAAAAAAAAAAAAAAAAAAAAAAAAA==

> <PUBCHEM_IUPAC_OPENEYE_NAME>
7-methyl-3-methylene-octa-1,6-diene

> <PUBCHEM_IUPAC_CAS_NAME>
7-methyl-3-methyleneocta-1,6-diene

> <PUBCHEM_IUPAC_NAME>
7-methyl-3-methylideneocta-1,6-diene

> <PUBCHEM_IUPAC_SYSTEMATIC_NAME>
7-methyl-3-methylidene-octa-1,6-diene

> <PUBCHEM_IUPAC_TRADITIONAL_NAME>
7-methyl-3-methylene-octa-1,6-diene

> <PUBCHEM_IUPAC_INCHI>
InChI=1S/C10H16/c1-5-10(4)8-6-7-9(2)3/h5,7H,1,4,6,8H2,2-3H3

> <PUBCHEM_IUPAC_INCHIKEY>
UAHWPYUMFXYFJY-UHFFFAOYSA-N

> <PUBCHEM_XLOGP3_AA>
4.3

> <PUBCHEM_EXACT_MASS>
136.125

> <PUBCHEM_MOLECULAR_FORMULA>
C10H16

> <PUBCHEM_MOLECULAR_WEIGHT>
136.238

> <PUBCHEM_OPENEYE_CAN_SMILES>
CC(=CCCC(=C)C=C)C

> <PUBCHEM_OPENEYE_ISO_SMILES>
CC(=CCCC(=C)C=C)C

> <PUBCHEM_CACTVS_TPSA>
0

> <PUBCHEM_MONOISOTOPIC_WEIGHT>
136.125

> <PUBCHEM_TOTAL_CHARGE>
0

> <PUBCHEM_HEAVY_ATOM_COUNT>
10

> <PUBCHEM_ATOM_DEF_STEREO_COUNT>
0

> <PUBCHEM_ATOM_UDEF_STEREO_COUNT>
0

> <PUBCHEM_BOND_DEF_STEREO_COUNT>
0

> <PUBCHEM_BOND_UDEF_STEREO_COUNT>
0

> <PUBCHEM_ISOTOPIC_ATOM_COUNT>
0

> <PUBCHEM_COMPONENT_COUNT>
1

> <PUBCHEM_CACTVS_TAUTO_COUNT>
-1

> <PUBCHEM_COORDINATE_TYPE>
1 __ 5 __ 255

$$$$
64685
 OpenBabel02201912233D

 29 30  0  0  1  0  0  0  0  0999 V2000
    1.0205    0.0059   -0.0035 O   0  0  0  0  0  0  0  0  0  0  0  0
    1.6867    0.8970    2.2239 C   0  0  3  0  0  0  0  0  0  0  0  0
    1.0919    2.0637    3.0705 C   0  0  0  0  0  0  0  0  0  0  0  0
    0.8818    2.9286    1.7994 C   0  0  3  0  0  0  0  0  0  0  0  0
    0.5558    0.6213    1.1876 C   0  0  3  0  0  0  0  0  0  0  0  0
    2.8599    1.5846    1.4722 C   0  0  0  0  0  0  0  0  0  0  0  0
    0.0154    2.0307    0.8844 C   0  0  0  0  0  0  0  0  0  0  0  0
    2.2877    2.9781    1.1581 C   0  0  0  0  0  0  0  0  0  0  0  0
    2.1223   -0.3428    2.9843 C   0  0  0  0  0  0  0  0  0  0  0  0
    2.0497    2.6912    4.1037 C   0  0  0  0  0  0  0  0  0  0  0  0
   -0.2065    1.7367    3.8350 C   0  0  0  0  0  0  0  0  0  0  0  0
    0.4492    3.9177    1.9658 H   0  0  0  0  0  0  0  0  0  0  0  0
   -0.2345   -0.0157    1.5994 H   0  0  0  0  0  0  0  0  0  0  0  0
    3.1611    1.0566    0.5621 H   0  0  0  0  0  0  0  0  0  0  0  0
    3.7564    1.6661    2.0970 H   0  0  0  0  0  0  0  0  0  0  0  0
    0.0974    2.3046   -0.1728 H   0  0  0  0  0  0  0  0  0  0  0  0
   -1.0407    2.1064    1.1628 H   0  0  0  0  0  0  0  0  0  0  0  0
    2.2490    3.1651    0.0795 H   0  0  0  0  0  0  0  0  0  0  0  0
    2.9069    3.7627    1.6049 H   0  0  0  0  0  0  0  0  0  0  0  0
    2.8981   -0.1077    3.7204 H   0  0  0  0  0  0  0  0  0  0  0  0
    1.2815   -0.7960    3.5198 H   0  0  0  0  0  0  0  0  0  0  0  0
    2.5299   -1.0992    2.3055 H   0  0  0  0  0  0  0  0  0  0  0  0
    1.6117    3.6049    4.5221 H   0  0  0  0  0  0  0  0  0  0  0  0
    2.2301    1.9987    4.9337 H   0  0  0  0  0  0  0  0  0  0  0  0
    3.0289    2.9680    3.7079 H   0  0  0  0  0  0  0  0  0  0  0  0
   -0.9901    1.2789    3.2281 H   0  0  0  0  0  0  0  0  0  0  0  0
   -0.0044    1.0456    4.6612 H   0  0  0  0  0  0  0  0  0  0  0  0
   -0.6351    2.6500    4.2640 H   0  0  0  0  0  0  0  0  0  0  0  0
    1.5368   -0.7769    0.2487 H   0  0  0  0  0  0  0  0  0  0  0  0
  1  5  1  0  0  0  0
  1 29  1  0  0  0  0
  2  3  1  0  0  0  0
  2  5  1  0  0  0  0
  2  6  1  0  0  0  0
  2  9  1  0  0  0  0
  3  4  1  0  0  0  0
  3 10  1  0  0  0  0
  3 11  1  0  0  0  0
  4  7  1  0  0  0  0
  4  8  1  0  0  0  0
  4 12  1  0  0  0  0
  5  7  1  0  0  0  0
  5 13  1  0  0  0  0
  6  8  1  0  0  0  0
  6 14  1  0  0  0  0
  6 15  1  0  0  0  0
  7 16  1  0  0  0  0
  7 17  1  0  0  0  0
  8 18  1  0  0  0  0
  8 19  1  0  0  0  0
  9 20  1  0  0  0  0
  9 21  1  0  0  0  0
  9 22  1  0  0  0  0
 10 23  1  0  0  0  0
 10 24  1  0  0  0  0
 10 25  1  0  0  0  0
 11 26  1  0  0  0  0
 11 27  1  0  0  0  0
 11 28  1  0  0  0  0
M  END
> <PUBCHEM_COMPOUND_CID>
64685

> <PUBCHEM_COMPOUND_CANONICALIZED>
1

> <PUBCHEM_CACTVS_COMPLEXITY>
185

> <PUBCHEM_CACTVS_HBOND_ACCEPTOR>
1

> <PUBCHEM_CACTVS_HBOND_DONOR>
1

> <PUBCHEM_CACTVS_ROTATABLE_BOND>
0

> <PUBCHEM_CACTVS_SUBSKEYS>
AAADceBwIAAAAAAAAAAAAAAAAAAAAYMAAAAwAAAAAAAAAAAAAAAAGgAACAAADxSggAICAAAAAgAAAAAAAAAAAAAAAAAAAAAAAAAAEAIAAAAAQAAEAAAAAAGAwPAPgAAAAAAAAACAAAIAABAAAYAADAAAAA==

> <PUBCHEM_IUPAC_OPENEYE_NAME>
1,7,7-trimethylnorbornan-2-ol

> <PUBCHEM_IUPAC_CAS_NAME>
1,7,7-trimethyl-2-bicyclo[2.2.1]heptanol

> <PUBCHEM_IUPAC_NAME>
1,7,7-trimethylbicyclo[2.2.1]heptan-2-ol

> <PUBCHEM_IUPAC_SYSTEMATIC_NAME>
1,7,7-trimethylbicyclo[2.2.1]heptan-2-ol

> <PUBCHEM_IUPAC_TRADITIONAL_NAME>
1,7,7-trimethylnorbornan-2-ol

> <PUBCHEM_IUPAC_INCHI>
InChI=1S/C10H18O/c1-9(2)7-4-5-10(9,3)8(11)6-7/h7-8,11H,4-6H2,1-3H3

> <PUBCHEM_IUPAC_INCHIKEY>
DTGKSKDOIYIVQL-UHFFFAOYSA-N

> <PUBCHEM_XLOGP3>
2.7

> <PUBCHEM_EXACT_MASS>
154.136

> <PUBCHEM_MOLECULAR_FORMULA>
C10H18O

> <PUBCHEM_MOLECULAR_WEIGHT>
154.253

> <PUBCHEM_OPENEYE_CAN_SMILES>
CC1(C2CCC1(C(C2)O)C)C

> <PUBCHEM_OPENEYE_ISO_SMILES>
CC1(C2CCC1(C(C2)O)C)C

> <PUBCHEM_CACTVS_TPSA>
20.2

> <PUBCHEM_MONOISOTOPIC_WEIGHT>
154.136

> <PUBCHEM_TOTAL_CHARGE>
0

> <PUBCHEM_HEAVY_ATOM_COUNT>
11

> <PUBCHEM_ATOM_DEF_STEREO_COUNT>
0

> <PUBCHEM_ATOM_UDEF_STEREO_COUNT>
3

> <PUBCHEM_BOND_DEF_STEREO_COUNT>
0

> <PUBCHEM_BOND_UDEF_STEREO_COUNT>
0

> <PUBCHEM_ISOTOPIC_ATOM_COUNT>
0

> <PUBCHEM_COMPONENT_COUNT>
1

> <PUBCHEM_CACTVS_TAUTO_COUNT>
-1

> <PUBCHEM_COORDINATE_TYPE>
1 __ 5 __ 255

> <PUBCHEM_BONDANNOTATIONS>
5  1  3 __ 2  3  3 __ 4  3  3

$$$$
6448
 OpenBabel02201912233D

 34 35  0  0  1  0  0  0  0  0999 V2000
    1.3063    0.0449   -0.0956 O   0  0  0  0  0  0  0  0  0  0  0  0
    3.1742    1.3199    0.3259 O   0  0  0  0  0  0  0  0  0  0  0  0
   -0.2483    1.1627    1.5616 C   0  0  3  0  0  0  0  0  0  0  0  0
   -1.2888    2.3208    1.3984 C   0  0  0  0  0  0  0  0  0  0  0  0
   -0.1899    3.2737    0.8357 C   0  0  3  0  0  0  0  0  0  0  0  0
    0.2796    1.0214    0.1052 C   0  0  3  0  0  0  0  0  0  0  0  0
    0.8401    1.8290    2.4531 C   0  0  0  0  0  0  0  0  0  0  0  0
    0.4573    2.4858   -0.3451 C   0  0  0  0  0  0  0  0  0  0  0  0
    0.8654    3.2843    1.9575 C   0  0  0  0  0  0  0  0  0  0  0  0
   -0.7329   -0.1540    2.1365 C   0  0  0  0  0  0  0  0  0  0  0  0
   -1.9496    2.7798    2.7148 C   0  0  0  0  0  0  0  0  0  0  0  0
   -2.4493    2.0699    0.4132 C   0  0  0  0  0  0  0  0  0  0  0  0
    2.6297    0.2632    0.0570 C   0  0  0  0  0  0  0  0  0  0  0  0
    3.3610   -1.0290   -0.1784 C   0  0  0  0  0  0  0  0  0  0  0  0
   -0.5332    4.2722    0.5536 H   0  0  0  0  0  0  0  0  0  0  0  0
   -0.5268    0.6058   -0.5097 H   0  0  0  0  0  0  0  0  0  0  0  0
    1.8180    1.3511    2.3755 H   0  0  0  0  0  0  0  0  0  0  0  0
    0.5712    1.7960    3.5153 H   0  0  0  0  0  0  0  0  0  0  0  0
    1.4895    2.7865   -0.5349 H   0  0  0  0  0  0  0  0  0  0  0  0
   -0.0983    2.6673   -1.2721 H   0  0  0  0  0  0  0  0  0  0  0  0
    1.8567    3.5858    1.6045 H   0  0  0  0  0  0  0  0  0  0  0  0
    0.5864    3.9779    2.7611 H   0  0  0  0  0  0  0  0  0  0  0  0
   -1.1535   -0.0226    3.1394 H   0  0  0  0  0  0  0  0  0  0  0  0
   -1.5041   -0.6052    1.5046 H   0  0  0  0  0  0  0  0  0  0  0  0
    0.0920   -0.8695    2.2164 H   0  0  0  0  0  0  0  0  0  0  0  0
   -2.1467    1.8959   -0.6221 H   0  0  0  0  0  0  0  0  0  0  0  0
   -2.5499    3.6814    2.5475 H   0  0  0  0  0  0  0  0  0  0  0  0
   -2.6237    2.0009    3.0927 H   0  0  0  0  0  0  0  0  0  0  0  0
   -1.2545    3.0125    3.5213 H   0  0  0  0  0  0  0  0  0  0  0  0
   -3.0466    1.2060    0.7306 H   0  0  0  0  0  0  0  0  0  0  0  0
   -3.1175    2.9387    0.3808 H   0  0  0  0  0  0  0  0  0  0  0  0
    2.8801   -1.8387    0.3816 H   0  0  0  0  0  0  0  0  0  0  0  0
    3.3652   -1.2625   -1.2459 H   0  0  0  0  0  0  0  0  0  0  0  0
    4.3900   -0.9413    0.1787 H   0  0  0  0  0  0  0  0  0  0  0  0
  1  6  1  0  0  0  0
  1 13  1  0  0  0  0
  2 13  2  0  0  0  0
  3  4  1  0  0  0  0
  3  6  1  0  0  0  0
  3  7  1  0  0  0  0
  3 10  1  0  0  0  0
  4  5  1  0  0  0  0
  4 11  1  0  0  0  0
  4 12  1  0  0  0  0
  5  8  1  0  0  0  0
  5  9  1  0  0  0  0
  5 15  1  0  0  0  0
  6  8  1  0  0  0  0
  6 16  1  0  0  0  0
  7  9  1  0  0  0  0
  7 17  1  0  0  0  0
  7 18  1  0  0  0  0
  8 19  1  0  0  0  0
  8 20  1  0  0  0  0
  9 21  1  0  0  0  0
  9 22  1  0  0  0  0
 10 23  1  0  0  0  0
 10 24  1  0  0  0  0
 10 25  1  0  0  0  0
 11 27  1  0  0  0  0
 11 28  1  0  0  0  0
 11 29  1  0  0  0  0
 12 26  1  0  0  0  0
 12 30  1  0  0  0  0
 12 31  1  0  0  0  0
 13 14  1  0  0  0  0
 14 32  1  0  0  0  0
 14 33  1  0  0  0  0
 14 34  1  0  0  0  0
M  END
> <PUBCHEM_COMPOUND_CID>
6448

> <PUBCHEM_COMPOUND_CANONICALIZED>
1

> <PUBCHEM_CACTVS_COMPLEXITY>
270

> <PUBCHEM_CACTVS_HBOND_ACCEPTOR>
2

> <PUBCHEM_CACTVS_HBOND_DONOR>
0

> <PUBCHEM_CACTVS_ROTATABLE_BOND>
2

> <PUBCHEM_CACTVS_SUBSKEYS>
AAADceBwMAAAAAAAAAAAAAAAAAAAAYMAAAAwAAAAAAAAAAAAAAAAGgAAAAAADxSggAICCAAABAAIAACQCAAAAAAAAAAAAAAAAAAAAAIAAAACAAAEAAAAAAGAwPAPgAAAAAAAAACAAAIAABAAAYAADAAAAA==

> <PUBCHEM_IUPAC_OPENEYE_NAME>
(1,7,7-trimethylnorbornan-2-yl) acetate

> <PUBCHEM_IUPAC_CAS_NAME>
acetic acid (1,7,7-trimethyl-2-bicyclo[2.2.1]heptanyl) ester

> <PUBCHEM_IUPAC_NAME>
(1,7,7-trimethyl-2-bicyclo[2.2.1]heptanyl) acetate

> <PUBCHEM_IUPAC_SYSTEMATIC_NAME>
(1,7,7-trimethyl-2-bicyclo[2.2.1]heptanyl) ethanoate

> <PUBCHEM_IUPAC_TRADITIONAL_NAME>
acetic acid 2-bornyl ester

> <PUBCHEM_IUPAC_INCHI>
InChI=1S/C12H20O2/c1-8(13)14-10-7-9-5-6-12(10,4)11(9,2)3/h9-10H,5-7H2,1-4H3

> <PUBCHEM_IUPAC_INCHIKEY>
KGEKLUUHTZCSIP-UHFFFAOYSA-N

> <PUBCHEM_XLOGP3>
3.3

> <PUBCHEM_EXACT_MASS>
196.146

> <PUBCHEM_MOLECULAR_FORMULA>
C12H20O2

> <PUBCHEM_MOLECULAR_WEIGHT>
196.29

> <PUBCHEM_OPENEYE_CAN_SMILES>
CC(=O)OC1CC2CCC1(C2(C)C)C

> <PUBCHEM_OPENEYE_ISO_SMILES>
CC(=O)OC1CC2CCC1(C2(C)C)C

> <PUBCHEM_CACTVS_TPSA>
26.3

> <PUBCHEM_MONOISOTOPIC_WEIGHT>
196.146

> <PUBCHEM_TOTAL_CHARGE>
0

> <PUBCHEM_HEAVY_ATOM_COUNT>
14

> <PUBCHEM_ATOM_DEF_STEREO_COUNT>
0

> <PUBCHEM_ATOM_UDEF_STEREO_COUNT>
3

> <PUBCHEM_BOND_DEF_STEREO_COUNT>
0

> <PUBCHEM_BOND_UDEF_STEREO_COUNT>
0

> <PUBCHEM_ISOTOPIC_ATOM_COUNT>
0

> <PUBCHEM_COMPONENT_COUNT>
1

> <PUBCHEM_CACTVS_TAUTO_COUNT>
-1

> <PUBCHEM_COORDINATE_TYPE>
1 __ 5 __ 255

> <PUBCHEM_BONDANNOTATIONS>
3  10  3 __ 5  15  3 __ 6  16  3

$$$$
11142
 OpenBabel02201912233D

 26 26  0  0  1  0  0  0  0  0999 V2000
   -0.9162    1.0537    0.1142 C   0  0  3  0  0  0  0  0  0  0  0  0
   -1.4910    1.5847    1.4604 C   0  0  0  0  0  0  0  0  0  0  0  0
    0.5678    1.4016   -0.1236 C   0  0  0  0  0  0  0  0  0  0  0  0
    1.5905    0.2576   -0.1409 C   0  0  0  0  0  0  0  0  0  0  0  0
   -1.2396   -0.4061   -0.0568 C   0  0  0  0  0  0  0  0  0  0  0  0
   -0.7917    1.0071    2.6950 C   0  0  0  0  0  0  0  0  0  0  0  0
   -1.4886    3.1174    1.5202 C   0  0  0  0  0  0  0  0  0  0  0  0
    1.0811   -1.1558   -0.0991 C   0  0  0  0  0  0  0  0  0  0  0  0
   -0.3391   -1.3875   -0.1477 C   0  0  0  0  0  0  0  0  0  0  0  0
    1.9391   -2.1869   -0.0229 C   0  0  0  0  0  0  0  0  0  0  0  0
   -1.4786    1.5691   -0.6791 H   0  0  0  0  0  0  0  0  0  0  0  0
   -2.5454    1.2780    1.5177 H   0  0  0  0  0  0  0  0  0  0  0  0
    0.9203    2.1525    0.5919 H   0  0  0  0  0  0  0  0  0  0  0  0
    0.6330    1.9139   -1.0945 H   0  0  0  0  0  0  0  0  0  0  0  0
    2.2003    0.3740   -1.0484 H   0  0  0  0  0  0  0  0  0  0  0  0
    2.2810    0.4058    0.7006 H   0  0  0  0  0  0  0  0  0  0  0  0
   -2.2959   -0.6676   -0.0928 H   0  0  0  0  0  0  0  0  0  0  0  0
    0.2719    1.2599    2.7177 H   0  0  0  0  0  0  0  0  0  0  0  0
   -1.2459    1.3995    3.6106 H   0  0  0  0  0  0  0  0  0  0  0  0
   -0.8862   -0.0835    2.7298 H   0  0  0  0  0  0  0  0  0  0  0  0
   -2.0406    3.5380    0.6732 H   0  0  0  0  0  0  0  0  0  0  0  0
   -1.9751    3.4671    2.4374 H   0  0  0  0  0  0  0  0  0  0  0  0
   -0.4776    3.5340    1.5078 H   0  0  0  0  0  0  0  0  0  0  0  0
   -0.6881   -2.4126   -0.2379 H   0  0  0  0  0  0  0  0  0  0  0  0
    1.6030   -3.2183    0.0154 H   0  0  0  0  0  0  0  0  0  0  0  0
    3.0117   -2.0208    0.0119 H   0  0  0  0  0  0  0  0  0  0  0  0
  1  2  1  0  0  0  0
  1  3  1  0  0  0  0
  1  5  1  0  0  0  0
  1 11  1  0  0  0  0
  2  6  1  0  0  0  0
  2  7  1  0  0  0  0
  2 12  1  0  0  0  0
  3  4  1  0  0  0  0
  3 13  1  0  0  0  0
  3 14  1  0  0  0  0
  4  8  1  0  0  0  0
  4 15  1  0  0  0  0
  4 16  1  0  0  0  0
  5  9  2  0  0  0  0
  5 17  1  0  0  0  0
  6 18  1  0  0  0  0
  6 19  1  0  0  0  0
  6 20  1  0  0  0  0
  7 21  1  0  0  0  0
  7 22  1  0  0  0  0
  7 23  1  0  0  0  0
  8  9  1  0  0  0  0
  8 10  2  0  0  0  0
  9 24  1  0  0  0  0
 10 25  1  0  0  0  0
 10 26  1  0  0  0  0
M  END
> <PUBCHEM_COMPOUND_CID>
11142

> <PUBCHEM_COMPOUND_CANONICALIZED>
1

> <PUBCHEM_CACTVS_COMPLEXITY>
151

> <PUBCHEM_CACTVS_HBOND_ACCEPTOR>
0

> <PUBCHEM_CACTVS_HBOND_DONOR>
0

> <PUBCHEM_CACTVS_ROTATABLE_BOND>
1

> <PUBCHEM_CACTVS_SUBSKEYS>
AAADceBwAAAAAAAAAAAAAAAAAAAAAAAAAAAgAAAAAAAAAAAAAAAAGAAAAAAADQCAAAACAAAAAACAAiBCAAAAAAAgAAAICAAAAAgIAAIAAQAAAAAAgAAIgAMAgEAOgAAAAAAAAAAAAAAAAAAAAAAAAAAAAA==

> <PUBCHEM_IUPAC_OPENEYE_NAME>
3-isopropyl-6-methylene-cyclohexene

> <PUBCHEM_IUPAC_CAS_NAME>
3-methylene-6-propan-2-ylcyclohexene

> <PUBCHEM_IUPAC_NAME>
3-methylidene-6-propan-2-ylcyclohexene

> <PUBCHEM_IUPAC_SYSTEMATIC_NAME>
3-methylidene-6-propan-2-yl-cyclohexene

> <PUBCHEM_IUPAC_TRADITIONAL_NAME>
3-isopropyl-6-methylene-cyclohexene

> <PUBCHEM_IUPAC_INCHI>
InChI=1S/C10H16/c1-8(2)10-6-4-9(3)5-7-10/h4,6,8,10H,3,5,7H2,1-2H3

> <PUBCHEM_IUPAC_INCHIKEY>
LFJQCDVYDGGFCH-UHFFFAOYSA-N

> <PUBCHEM_XLOGP3_AA>
3.4

> <PUBCHEM_EXACT_MASS>
136.125

> <PUBCHEM_MOLECULAR_FORMULA>
C10H16

> <PUBCHEM_MOLECULAR_WEIGHT>
136.238

> <PUBCHEM_OPENEYE_CAN_SMILES>
CC(C)C1CCC(=C)C=C1

> <PUBCHEM_OPENEYE_ISO_SMILES>
CC(C)C1CCC(=C)C=C1

> <PUBCHEM_CACTVS_TPSA>
0

> <PUBCHEM_MONOISOTOPIC_WEIGHT>
136.125

> <PUBCHEM_TOTAL_CHARGE>
0

> <PUBCHEM_HEAVY_ATOM_COUNT>
10

> <PUBCHEM_ATOM_DEF_STEREO_COUNT>
0

> <PUBCHEM_ATOM_UDEF_STEREO_COUNT>
1

> <PUBCHEM_BOND_DEF_STEREO_COUNT>
0

> <PUBCHEM_BOND_UDEF_STEREO_COUNT>
0

> <PUBCHEM_ISOTOPIC_ATOM_COUNT>
0

> <PUBCHEM_COMPONENT_COUNT>
1

> <PUBCHEM_CACTVS_TAUTO_COUNT>
-1

> <PUBCHEM_COORDINATE_TYPE>
1 __ 5 __ 255

> <PUBCHEM_BONDANNOTATIONS>
1  2  3

$$$$
14896
 OpenBabel02201912233D

 26 27  0  0  1  0  0  0  0  0999 V2000
   -1.2077    0.0189    1.0404 C   0  0  0  0  0  0  0  0  0  0  0  0
   -0.6118   -1.0478    0.0210 C   0  0  3  0  0  0  0  0  0  0  0  0
   -0.5920    1.0683    0.0179 C   0  0  3  0  0  0  0  0  0  0  0  0
   -0.9162    0.0041   -1.0927 C   0  0  0  0  0  0  0  0  0  0  0  0
    0.9057   -1.3011    0.1319 C   0  0  0  0  0  0  0  0  0  0  0  0
    0.8955    1.2261    0.1892 C   0  0  0  0  0  0  0  0  0  0  0  0
    1.7113   -0.0070   -0.1192 C   0  0  0  0  0  0  0  0  0  0  0  0
   -2.7452    0.0366    1.1384 C   0  0  0  0  0  0  0  0  0  0  0  0
   -0.6517    0.0167    2.4703 C   0  0  0  0  0  0  0  0  0  0  0  0
    1.3957    2.3664    0.6847 C   0  0  0  0  0  0  0  0  0  0  0  0
   -1.1784   -1.9822   -0.0478 H   0  0  0  0  0  0  0  0  0  0  0  0
   -1.1336    2.0145   -0.0854 H   0  0  0  0  0  0  0  0  0  0  0  0
   -0.2702   -0.0101   -1.9772 H   0  0  0  0  0  0  0  0  0  0  0  0
   -1.9459    0.0131   -1.4651 H   0  0  0  0  0  0  0  0  0  0  0  0
    1.2117   -2.0588   -0.5993 H   0  0  0  0  0  0  0  0  0  0  0  0
    1.1442   -1.7127    1.1191 H   0  0  0  0  0  0  0  0  0  0  0  0
    2.6465   -0.0335    0.4511 H   0  0  0  0  0  0  0  0  0  0  0  0
    1.9918    0.0311   -1.1798 H   0  0  0  0  0  0  0  0  0  0  0  0
    0.4394   -0.0187    2.5154 H   0  0  0  0  0  0  0  0  0  0  0  0
   -0.9658    0.9208    3.0047 H   0  0  0  0  0  0  0  0  0  0  0  0
   -1.0236   -0.8499    3.0276 H   0  0  0  0  0  0  0  0  0  0  0  0
   -3.1045   -0.8479    1.6770 H   0  0  0  0  0  0  0  0  0  0  0  0
   -3.0852    0.9248    1.6816 H   0  0  0  0  0  0  0  0  0  0  0  0
   -3.2458    0.0440    0.1665 H   0  0  0  0  0  0  0  0  0  0  0  0
    0.7587    3.2079    0.9381 H   0  0  0  0  0  0  0  0  0  0  0  0
    2.4605    2.4807    0.8601 H   0  0  0  0  0  0  0  0  0  0  0  0
  1  2  1  0  0  0  0
  1  3  1  0  0  0  0
  1  8  1  0  0  0  0
  1  9  1  0  0  0  0
  2  4  1  0  0  0  0
  2  5  1  0  0  0  0
  2 11  1  0  0  0  0
  3  4  1  0  0  0  0
  3  6  1  0  0  0  0
  3 12  1  0  0  0  0
  4 13  1  0  0  0  0
  4 14  1  0  0  0  0
  5  7  1  0  0  0  0
  5 15  1  0  0  0  0
  5 16  1  0  0  0  0
  6  7  1  0  0  0  0
  6 10  2  0  0  0  0
  7 17  1  0  0  0  0
  7 18  1  0  0  0  0
  8 22  1  0  0  0  0
  8 23  1  0  0  0  0
  8 24  1  0  0  0  0
  9 19  1  0  0  0  0
  9 20  1  0  0  0  0
  9 21  1  0  0  0  0
 10 25  1  0  0  0  0
 10 26  1  0  0  0  0
M  END
> <PUBCHEM_COMPOUND_CID>
14896

> <PUBCHEM_COMPOUND_CANONICALIZED>
1

> <PUBCHEM_CACTVS_COMPLEXITY>
177

> <PUBCHEM_CACTVS_HBOND_ACCEPTOR>
0

> <PUBCHEM_CACTVS_HBOND_DONOR>
0

> <PUBCHEM_CACTVS_ROTATABLE_BOND>
0

> <PUBCHEM_CACTVS_SUBSKEYS>
AAADceBwAAAAAAAAAAAAAAAAAABgAAAAAAAwYAAAAAAAAAAAAAAAGAAAAAAADwCAAAACAAAAAACAAgBCAAAAAAAgAAAAAAAAAAgAAAIAAQAAAAAAgAAAAAEAgMAPgAAAAAAAAAAAAAAAACAAAAAAAAAAAA==

> <PUBCHEM_IUPAC_OPENEYE_NAME>
6,6-dimethyl-2-methylene-norpinane

> <PUBCHEM_IUPAC_CAS_NAME>
6,6-dimethyl-2-methylenebicyclo[3.1.1]heptane

> <PUBCHEM_IUPAC_NAME>
6,6-dimethyl-2-methylidenebicyclo[3.1.1]heptane

> <PUBCHEM_IUPAC_SYSTEMATIC_NAME>
6,6-dimethyl-2-methylidene-bicyclo[3.1.1]heptane

> <PUBCHEM_IUPAC_TRADITIONAL_NAME>
6,6-dimethyl-2-methylene-norpinane

> <PUBCHEM_IUPAC_INCHI>
InChI=1S/C10H16/c1-7-4-5-8-6-9(7)10(8,2)3/h8-9H,1,4-6H2,2-3H3

> <PUBCHEM_IUPAC_INCHIKEY>
WTARULDDTDQWMU-UHFFFAOYSA-N

> <PUBCHEM_XLOGP3_AA>
3.1

> <PUBCHEM_EXACT_MASS>
136.125

> <PUBCHEM_MOLECULAR_FORMULA>
C10H16

> <PUBCHEM_MOLECULAR_WEIGHT>
136.238

> <PUBCHEM_OPENEYE_CAN_SMILES>
CC1(C2CCC(=C)C1C2)C

> <PUBCHEM_OPENEYE_ISO_SMILES>
CC1(C2CCC(=C)C1C2)C

> <PUBCHEM_CACTVS_TPSA>
0

> <PUBCHEM_MONOISOTOPIC_WEIGHT>
136.125

> <PUBCHEM_TOTAL_CHARGE>
0

> <PUBCHEM_HEAVY_ATOM_COUNT>
10

> <PUBCHEM_ATOM_DEF_STEREO_COUNT>
0

> <PUBCHEM_ATOM_UDEF_STEREO_COUNT>
2

> <PUBCHEM_BOND_DEF_STEREO_COUNT>
0

> <PUBCHEM_BOND_UDEF_STEREO_COUNT>
0

> <PUBCHEM_ISOTOPIC_ATOM_COUNT>
0

> <PUBCHEM_COMPONENT_COUNT>
1

> <PUBCHEM_CACTVS_TAUTO_COUNT>
-1

> <PUBCHEM_COORDINATE_TYPE>
1 __ 5 __ 255

> <PUBCHEM_BONDANNOTATIONS>
2  1  3 __ 3  1  3

$$$$
6616
 OpenBabel02201912233D

 26 27  0  0  1  0  0  0  0  0999 V2000
   -0.0035   -1.1150    0.2692 C   0  0  3  0  0  0  0  0  0  0  0  0
   -1.2627   -0.7893   -0.6026 C   0  0  0  0  0  0  0  0  0  0  0  0
   -0.0158    1.1191    0.3076 C   0  0  3  0  0  0  0  0  0  0  0  0
   -0.0415   -0.0093    1.3366 C   0  0  0  0  0  0  0  0  0  0  0  0
    1.3144   -0.7412   -0.4455 C   0  0  0  0  0  0  0  0  0  0  0  0
    1.2614    0.7972   -0.4867 C   0  0  0  0  0  0  0  0  0  0  0  0
   -1.2083    0.7360   -0.5505 C   0  0  0  0  0  0  0  0  0  0  0  0
   -2.5410   -1.3432    0.0527 C   0  0  0  0  0  0  0  0  0  0  0  0
   -1.1723   -1.3336   -2.0347 C   0  0  0  0  0  0  0  0  0  0  0  0
   -2.0679    1.5985   -1.1069 C   0  0  0  0  0  0  0  0  0  0  0  0
    0.0042   -2.1321    0.6701 H   0  0  0  0  0  0  0  0  0  0  0  0
   -0.0508    2.1293    0.7198 H   0  0  0  0  0  0  0  0  0  0  0  0
    0.8392   -0.0126    1.9891 H   0  0  0  0  0  0  0  0  0  0  0  0
   -0.9394   -0.0153    1.9616 H   0  0  0  0  0  0  0  0  0  0  0  0
    1.4283   -1.1874   -1.4361 H   0  0  0  0  0  0  0  0  0  0  0  0
    2.1739   -1.0641    0.1550 H   0  0  0  0  0  0  0  0  0  0  0  0
    1.2273    1.1764   -1.5138 H   0  0  0  0  0  0  0  0  0  0  0  0
    2.1469    1.2166    0.0040 H   0  0  0  0  0  0  0  0  0  0  0  0
   -3.4302   -1.0928   -0.5377 H   0  0  0  0  0  0  0  0  0  0  0  0
   -0.3971   -0.8348   -2.6258 H   0  0  0  0  0  0  0  0  0  0  0  0
   -0.9588   -2.4081   -2.0297 H   0  0  0  0  0  0  0  0  0  0  0  0
   -2.4924   -2.4355    0.1294 H   0  0  0  0  0  0  0  0  0  0  0  0
   -2.7066   -0.9490    1.0601 H   0  0  0  0  0  0  0  0  0  0  0  0
   -2.1152   -1.1852   -2.5744 H   0  0  0  0  0  0  0  0  0  0  0  0
   -1.9447    2.6703   -0.9886 H   0  0  0  0  0  0  0  0  0  0  0  0
   -2.9142    1.2545   -1.6929 H   0  0  0  0  0  0  0  0  0  0  0  0
  1  2  1  0  0  0  0
  1  4  1  0  0  0  0
  1  5  1  0  0  0  0
  1 11  1  0  0  0  0
  2  7  1  0  0  0  0
  2  8  1  0  0  0  0
  2  9  1  0  0  0  0
  3  4  1  0  0  0  0
  3  6  1  0  0  0  0
  3  7  1  0  0  0  0
  3 12  1  0  0  0  0
  4 13  1  0  0  0  0
  4 14  1  0  0  0  0
  5  6  1  0  0  0  0
  5 15  1  0  0  0  0
  5 16  1  0  0  0  0
  6 17  1  0  0  0  0
  6 18  1  0  0  0  0
  7 10  2  0  0  0  0
  8 19  1  0  0  0  0
  8 22  1  0  0  0  0
  8 23  1  0  0  0  0
  9 20  1  0  0  0  0
  9 21  1  0  0  0  0
  9 24  1  0  0  0  0
 10 25  1  0  0  0  0
 10 26  1  0  0  0  0
M  END
> <PUBCHEM_COMPOUND_CID>
6616

> <PUBCHEM_COMPOUND_CANONICALIZED>
1

> <PUBCHEM_CACTVS_COMPLEXITY>
177

> <PUBCHEM_CACTVS_HBOND_ACCEPTOR>
0

> <PUBCHEM_CACTVS_HBOND_DONOR>
0

> <PUBCHEM_CACTVS_ROTATABLE_BOND>
0

> <PUBCHEM_CACTVS_SUBSKEYS>
AAADceBwAAAAAAAAAAAAAAAAAAAAAYMAAAAwAAAAAAAAAAAAAAAAGAAAAAAADwCAAAACAAAAAACAAgBCAAAAAAAgAAAAAAAAAAgAAAIAAQAAAAAAgAAAAAEAgMAPgAAAAAAAAAAAAAQAACAAAQAACAAAAA==

> <PUBCHEM_IUPAC_OPENEYE_NAME>
2,2-dimethyl-3-methylene-norbornane

> <PUBCHEM_IUPAC_CAS_NAME>
2,2-dimethyl-3-methylenebicyclo[2.2.1]heptane

> <PUBCHEM_IUPAC_NAME>
2,2-dimethyl-3-methylidenebicyclo[2.2.1]heptane

> <PUBCHEM_IUPAC_SYSTEMATIC_NAME>
2,2-dimethyl-3-methylidene-bicyclo[2.2.1]heptane

> <PUBCHEM_IUPAC_TRADITIONAL_NAME>
2,2-dimethyl-3-methylene-norbornane

> <PUBCHEM_IUPAC_INCHI>
InChI=1S/C10H16/c1-7-8-4-5-9(6-8)10(7,2)3/h8-9H,1,4-6H2,2-3H3

> <PUBCHEM_IUPAC_INCHIKEY>
CRPUJAZIXJMDBK-UHFFFAOYSA-N

> <PUBCHEM_XLOGP3_AA>
3.3

> <PUBCHEM_EXACT_MASS>
136.125

> <PUBCHEM_MOLECULAR_FORMULA>
C10H16

> <PUBCHEM_MOLECULAR_WEIGHT>
136.238

> <PUBCHEM_OPENEYE_CAN_SMILES>
CC1(C2CCC(C2)C1=C)C

> <PUBCHEM_OPENEYE_ISO_SMILES>
CC1(C2CCC(C2)C1=C)C

> <PUBCHEM_CACTVS_TPSA>
0

> <PUBCHEM_MONOISOTOPIC_WEIGHT>
136.125

> <PUBCHEM_TOTAL_CHARGE>
0

> <PUBCHEM_HEAVY_ATOM_COUNT>
10

> <PUBCHEM_ATOM_DEF_STEREO_COUNT>
0

> <PUBCHEM_ATOM_UDEF_STEREO_COUNT>
2

> <PUBCHEM_BOND_DEF_STEREO_COUNT>
0

> <PUBCHEM_BOND_UDEF_STEREO_COUNT>
0

> <PUBCHEM_ISOTOPIC_ATOM_COUNT>
0

> <PUBCHEM_COMPONENT_COUNT>
1

> <PUBCHEM_CACTVS_TAUTO_COUNT>
-1

> <PUBCHEM_COORDINATE_TYPE>
1 __ 5 __ 255

> <PUBCHEM_BONDANNOTATIONS>
1  11  3 __ 3  12  3

$$$$
2537
 OpenBabel02201912233D

 27 28  0  0  1  0  0  0  0  0999 V2000
    1.0170   -0.0055   -0.0664 O   0  0  0  0  0  0  0  0  0  0  0  0
    4.3191    0.3310    1.0326 C   0  0  0  0  0  0  0  0  0  0  0  0
    3.1287    1.1420    0.4508 C   0  0  3  0  0  0  0  0  0  0  0  0
    4.4971   -0.4790   -0.2826 C   0  0  3  0  0  0  0  0  0  0  0  0
    3.6912    1.7353   -0.8618 C   0  0  0  0  0  0  0  0  0  0  0  0
    4.6499    0.6287   -1.3563 C   0  0  0  0  0  0  0  0  0  0  0  0
    3.1180   -1.1460   -0.5101 C   0  0  0  0  0  0  0  0  0  0  0  0
    2.2381   -0.0061   -0.0350 C   0  0  0  0  0  0  0  0  0  0  0  0
    3.9723   -0.5258    2.2668 C   0  0  0  0  0  0  0  0  0  0  0  0
    5.5500    1.1748    1.4182 C   0  0  0  0  0  0  0  0  0  0  0  0
    2.4407    2.1347    1.3570 C   0  0  0  0  0  0  0  0  0  0  0  0
    5.3222   -1.1951   -0.2859 H   0  0  0  0  0  0  0  0  0  0  0  0
    4.2329    2.6724   -0.6954 H   0  0  0  0  0  0  0  0  0  0  0  0
    2.9053    1.9293   -1.6011 H   0  0  0  0  0  0  0  0  0  0  0  0
    4.3808    0.2793   -2.3589 H   0  0  0  0  0  0  0  0  0  0  0  0
    5.6787    0.9996   -1.4058 H   0  0  0  0  0  0  0  0  0  0  0  0
    2.9270   -1.3789   -1.5606 H   0  0  0  0  0  0  0  0  0  0  0  0
    2.9722   -2.0280    0.1169 H   0  0  0  0  0  0  0  0  0  0  0  0
    5.9007    1.8470    0.6321 H   0  0  0  0  0  0  0  0  0  0  0  0
    4.7913   -1.2184    2.4933 H   0  0  0  0  0  0  0  0  0  0  0  0
    3.8192    0.1080    3.1478 H   0  0  0  0  0  0  0  0  0  0  0  0
    5.3311    1.8009    2.2908 H   0  0  0  0  0  0  0  0  0  0  0  0
    3.0639   -1.1237    2.1552 H   0  0  0  0  0  0  0  0  0  0  0  0
    6.3922    0.5234    1.6791 H   0  0  0  0  0  0  0  0  0  0  0  0
    2.0132    1.6429    2.2370 H   0  0  0  0  0  0  0  0  0  0  0  0
    3.1346    2.9076    1.7024 H   0  0  0  0  0  0  0  0  0  0  0  0
    1.6166    2.6339    0.8356 H   0  0  0  0  0  0  0  0  0  0  0  0
  1  8  2  0  0  0  0
  2  3  1  0  0  0  0
  2  4  1  0  0  0  0
  2  9  1  0  0  0  0
  2 10  1  0  0  0  0
  3  5  1  0  0  0  0
  3  8  1  0  0  0  0
  3 11  1  0  0  0  0
  4  6  1  0  0  0  0
  4  7  1  0  0  0  0
  4 12  1  0  0  0  0
  5  6  1  0  0  0  0
  5 13  1  0  0  0  0
  5 14  1  0  0  0  0
  6 15  1  0  0  0  0
  6 16  1  0  0  0  0
  7  8  1  0  0  0  0
  7 17  1  0  0  0  0
  7 18  1  0  0  0  0
  9 20  1  0  0  0  0
  9 21  1  0  0  0  0
  9 23  1  0  0  0  0
 10 19  1  0  0  0  0
 10 22  1  0  0  0  0
 10 24  1  0  0  0  0
 11 25  1  0  0  0  0
 11 26  1  0  0  0  0
 11 27  1  0  0  0  0
M  END
> <PUBCHEM_COMPOUND_CID>
2537

> <PUBCHEM_COMPOUND_CANONICALIZED>
1

> <PUBCHEM_CACTVS_COMPLEXITY>
217

> <PUBCHEM_CACTVS_HBOND_ACCEPTOR>
1

> <PUBCHEM_CACTVS_HBOND_DONOR>
0

> <PUBCHEM_CACTVS_ROTATABLE_BOND>
0

> <PUBCHEM_CACTVS_SUBSKEYS>
AAADceBwIAAAAAAAAAAAAAAAAAAAAYMAAAAwAAAAAAAAAAAAAAAAGgAAAAAADwSAgAACAAAAAAAIAIAQAAAAAAAAAAAAAAEAAAAAABIAAAAAAAAAAAAAAAEIiMCPgAAAAAAAAACAAAAAAAAAAQAACAAAAA==

> <PUBCHEM_IUPAC_OPENEYE_NAME>
1,7,7-trimethylnorbornan-2-one

> <PUBCHEM_IUPAC_CAS_NAME>
1,7,7-trimethyl-2-bicyclo[2.2.1]heptanone

> <PUBCHEM_IUPAC_NAME>
1,7,7-trimethylbicyclo[2.2.1]heptan-2-one

> <PUBCHEM_IUPAC_SYSTEMATIC_NAME>
1,7,7-trimethylbicyclo[2.2.1]heptan-2-one

> <PUBCHEM_IUPAC_TRADITIONAL_NAME>
camphor

> <PUBCHEM_IUPAC_INCHI>
InChI=1S/C10H16O/c1-9(2)7-4-5-10(9,3)8(11)6-7/h7H,4-6H2,1-3H3

> <PUBCHEM_IUPAC_INCHIKEY>
DSSYKIVIOFKYAU-UHFFFAOYSA-N

> <PUBCHEM_XLOGP3_AA>
2.2

> <PUBCHEM_EXACT_MASS>
152.12

> <PUBCHEM_MOLECULAR_FORMULA>
C10H16O

> <PUBCHEM_MOLECULAR_WEIGHT>
152.237

> <PUBCHEM_OPENEYE_CAN_SMILES>
CC1(C2CCC1(C(=O)C2)C)C

> <PUBCHEM_OPENEYE_ISO_SMILES>
CC1(C2CCC1(C(=O)C2)C)C

> <PUBCHEM_CACTVS_TPSA>
17.1

> <PUBCHEM_MONOISOTOPIC_WEIGHT>
152.12

> <PUBCHEM_TOTAL_CHARGE>
0

> <PUBCHEM_HEAVY_ATOM_COUNT>
11

> <PUBCHEM_ATOM_DEF_STEREO_COUNT>
0

> <PUBCHEM_ATOM_UDEF_STEREO_COUNT>
2

> <PUBCHEM_BOND_DEF_STEREO_COUNT>
0

> <PUBCHEM_BOND_UDEF_STEREO_COUNT>
0

> <PUBCHEM_ISOTOPIC_ATOM_COUNT>
0

> <PUBCHEM_COMPONENT_COUNT>
1

> <PUBCHEM_CACTVS_TAUTO_COUNT>
-1

> <PUBCHEM_COORDINATE_TYPE>
1 __ 5 __ 255

> <PUBCHEM_BONDANNOTATIONS>
3  11  3 __ 4  12  3

$$$$
2758
 OpenBabel02201912233D

 29 30  0  0  0  0  0  0  0  0999 V2000
    0.6961    1.3096   -0.2871 O   0  0  0  0  0  0  0  0  0  0  0  0
   -1.3303   -0.0525    0.0091 C   0  0  3  0  0  0  0  0  0  0  0  0
    1.2266   -0.0013   -0.0040 C   0  0  3  0  0  0  0  0  0  0  0  0
   -0.7468    1.3585   -0.2954 C   0  0  0  0  0  0  0  0  0  0  0  0
   -0.8055   -0.5405    1.3732 C   0  0  0  0  0  0  0  0  0  0  0  0
   -0.8075   -1.0593   -1.0336 C   0  0  0  0  0  0  0  0  0  0  0  0
    0.7241   -0.4398    1.3849 C   0  0  0  0  0  0  0  0  0  0  0  0
    0.7222   -0.9741   -1.0871 C   0  0  0  0  0  0  0  0  0  0  0  0
    2.7481    0.1032   -0.0277 C   0  0  0  0  0  0  0  0  0  0  0  0
   -1.1719    2.3994    0.7514 C   0  0  0  0  0  0  0  0  0  0  0  0
   -1.1760    1.8769   -1.6763 C   0  0  0  0  0  0  0  0  0  0  0  0
   -2.4259   -0.0415    0.0077 H   0  0  0  0  0  0  0  0  0  0  0  0
   -1.2331    0.0405    2.1974 H   0  0  0  0  0  0  0  0  0  0  0  0
   -1.1117   -1.5791    1.5501 H   0  0  0  0  0  0  0  0  0  0  0  0
   -1.1146   -2.0783   -0.7672 H   0  0  0  0  0  0  0  0  0  0  0  0
   -1.2357   -0.8685   -2.0235 H   0  0  0  0  0  0  0  0  0  0  0  0
    1.0204   -0.6175   -2.0808 H   0  0  0  0  0  0  0  0  0  0  0  0
    1.0226    0.2960    2.1420 H   0  0  0  0  0  0  0  0  0  0  0  0
    1.1596   -1.4025    1.6773 H   0  0  0  0  0  0  0  0  0  0  0  0
    1.1567   -1.9720   -0.9555 H   0  0  0  0  0  0  0  0  0  0  0  0
    3.2222   -0.8613    0.1807 H   0  0  0  0  0  0  0  0  0  0  0  0
    3.0987    0.4594   -1.0030 H   0  0  0  0  0  0  0  0  0  0  0  0
    3.0999    0.8306    0.7126 H   0  0  0  0  0  0  0  0  0  0  0  0
   -0.8035    3.3961    0.4806 H   0  0  0  0  0  0  0  0  0  0  0  0
   -2.2614    2.4500    0.8457 H   0  0  0  0  0  0  0  0  0  0  0  0
   -0.7416    2.1900    1.7357 H   0  0  0  0  0  0  0  0  0  0  0  0
   -0.7492    1.2803   -2.4886 H   0  0  0  0  0  0  0  0  0  0  0  0
   -2.2658    1.8857   -1.7794 H   0  0  0  0  0  0  0  0  0  0  0  0
   -0.8066    2.8962   -1.8411 H   0  0  0  0  0  0  0  0  0  0  0  0
  1  3  1  0  0  0  0
  1  4  1  0  0  0  0
  2  4  1  0  0  0  0
  2  5  1  0  0  0  0
  2  6  1  0  0  0  0
  2 12  1  0  0  0  0
  3  7  1  0  0  0  0
  3  8  1  0  0  0  0
  3  9  1  0  0  0  0
  4 10  1  0  0  0  0
  4 11  1  0  0  0  0
  5  7  1  0  0  0  0
  5 13  1  0  0  0  0
  5 14  1  0  0  0  0
  6  8  1  0  0  0  0
  6 15  1  0  0  0  0
  6 16  1  0  0  0  0
  7 18  1  0  0  0  0
  7 19  1  0  0  0  0
  8 17  1  0  0  0  0
  8 20  1  0  0  0  0
  9 21  1  0  0  0  0
  9 22  1  0  0  0  0
  9 23  1  0  0  0  0
 10 24  1  0  0  0  0
 10 25  1  0  0  0  0
 10 26  1  0  0  0  0
 11 27  1  0  0  0  0
 11 28  1  0  0  0  0
 11 29  1  0  0  0  0
M  END
> <PUBCHEM_COMPOUND_CID>
2758

> <PUBCHEM_COMPOUND_CANONICALIZED>
1

> <PUBCHEM_CACTVS_COMPLEXITY>
164

> <PUBCHEM_CACTVS_HBOND_ACCEPTOR>
1

> <PUBCHEM_CACTVS_HBOND_DONOR>
0

> <PUBCHEM_CACTVS_ROTATABLE_BOND>
0

> <PUBCHEM_CACTVS_SUBSKEYS>
AAADceBwIAAAAAAAAAAAAAAAAAAAAAAAAAA0SIAAAAAAAAAAAAAAGgAAAAAADUSAgAACAAAABAAAAAAAAAAAAAAAAAAAAAAAAAAAAAIAAAACAAAEAAAAAAGAwPAOgAAAAAAAAADAAAAAAAAAAAAAAAAAAA==

> <PUBCHEM_IUPAC_OPENEYE_NAME>
1,3,3-trimethyl-2-oxabicyclo[2.2.2]octane

> <PUBCHEM_IUPAC_CAS_NAME>
1,3,3-trimethyl-2-oxabicyclo[2.2.2]octane

> <PUBCHEM_IUPAC_NAME>
1,3,3-trimethyl-2-oxabicyclo[2.2.2]octane

> <PUBCHEM_IUPAC_SYSTEMATIC_NAME>
1,3,3-trimethyl-2-oxabicyclo[2.2.2]octane

> <PUBCHEM_IUPAC_TRADITIONAL_NAME>
1,3,3-trimethyl-2-oxabicyclo[2.2.2]octane

> <PUBCHEM_IUPAC_INCHI>
InChI=1S/C10H18O/c1-9(2)8-4-6-10(3,11-9)7-5-8/h8H,4-7H2,1-3H3

> <PUBCHEM_IUPAC_INCHIKEY>
WEEGYLXZBRQIMU-UHFFFAOYSA-N

> <PUBCHEM_XLOGP3>
2.5

> <PUBCHEM_EXACT_MASS>
154.136

> <PUBCHEM_MOLECULAR_FORMULA>
C10H18O

> <PUBCHEM_MOLECULAR_WEIGHT>
154.253

> <PUBCHEM_OPENEYE_CAN_SMILES>
CC1(C2CCC(O1)(CC2)C)C

> <PUBCHEM_OPENEYE_ISO_SMILES>
CC1(C2CCC(O1)(CC2)C)C

> <PUBCHEM_CACTVS_TPSA>
9.2

> <PUBCHEM_MONOISOTOPIC_WEIGHT>
154.136

> <PUBCHEM_TOTAL_CHARGE>
0

> <PUBCHEM_HEAVY_ATOM_COUNT>
11

> <PUBCHEM_ATOM_DEF_STEREO_COUNT>
0

> <PUBCHEM_ATOM_UDEF_STEREO_COUNT>
0

> <PUBCHEM_BOND_DEF_STEREO_COUNT>
0

> <PUBCHEM_BOND_UDEF_STEREO_COUNT>
0

> <PUBCHEM_ISOTOPIC_ATOM_COUNT>
0

> <PUBCHEM_COMPONENT_COUNT>
1

> <PUBCHEM_CACTVS_TAUTO_COUNT>
-1

> <PUBCHEM_COORDINATE_TYPE>
1 __ 5 __ 255

$$$$
8842
 OpenBabel02201912233D

 31 30  0  0  1  0  0  0  0  0999 V2000
    5.2029    1.6013    0.6002 O   0  0  0  0  0  0  0  0  0  0  0  0
    2.5826    1.2960   -2.1482 C   0  0  3  0  0  0  0  0  0  0  0  0
    3.0775    0.0823   -2.9660 C   0  0  0  0  0  0  0  0  0  0  0  0
    3.2185    1.3362   -0.7424 C   0  0  0  0  0  0  0  0  0  0  0  0
    2.5024    0.0197   -4.3879 C   0  0  0  0  0  0  0  0  0  0  0  0
    1.0564    1.3052   -1.9867 C   0  0  0  0  0  0  0  0  0  0  0  0
    4.7318    1.5260   -0.7405 C   0  0  0  0  0  0  0  0  0  0  0  0
    3.0591   -1.1423   -5.1641 C   0  0  0  0  0  0  0  0  0  0  0  0
    3.7877   -1.0851   -6.2963 C   0  0  0  0  0  0  0  0  0  0  0  0
    4.2233   -2.3373   -7.0074 C   0  0  0  0  0  0  0  0  0  0  0  0
    4.2079    0.2049   -6.9434 C   0  0  0  0  0  0  0  0  0  0  0  0
    2.8672    2.2114   -2.6830 H   0  0  0  0  0  0  0  0  0  0  0  0
    4.1701    0.1239   -3.0487 H   0  0  0  0  0  0  0  0  0  0  0  0
    2.8375   -0.8442   -2.4293 H   0  0  0  0  0  0  0  0  0  0  0  0
    2.9714    0.4210   -0.1888 H   0  0  0  0  0  0  0  0  0  0  0  0
    2.7696    2.1540   -0.1626 H   0  0  0  0  0  0  0  0  0  0  0  0
    1.4167   -0.1155   -4.3531 H   0  0  0  0  0  0  0  0  0  0  0  0
    2.6872    0.9704   -4.8983 H   0  0  0  0  0  0  0  0  0  0  0  0
    0.7319    2.2206   -1.4791 H   0  0  0  0  0  0  0  0  0  0  0  0
    0.5385    1.2786   -2.9486 H   0  0  0  0  0  0  0  0  0  0  0  0
    0.7163    0.4519   -1.3901 H   0  0  0  0  0  0  0  0  0  0  0  0
    5.0181    2.4454   -1.2606 H   0  0  0  0  0  0  0  0  0  0  0  0
    5.2439    0.6850   -1.2144 H   0  0  0  0  0  0  0  0  0  0  0  0
    2.7994   -2.1235   -4.7616 H   0  0  0  0  0  0  0  0  0  0  0  0
    4.7803    2.3705    1.0182 H   0  0  0  0  0  0  0  0  0  0  0  0
    3.8635   -2.3288   -8.0422 H   0  0  0  0  0  0  0  0  0  0  0  0
    5.3154   -2.4084   -7.0190 H   0  0  0  0  0  0  0  0  0  0  0  0
    3.8320   -3.2426   -6.5326 H   0  0  0  0  0  0  0  0  0  0  0  0
    3.3349    0.7683   -7.2889 H   0  0  0  0  0  0  0  0  0  0  0  0
    4.7836    0.8205   -6.2456 H   0  0  0  0  0  0  0  0  0  0  0  0
    4.8446    0.0221   -7.8156 H   0  0  0  0  0  0  0  0  0  0  0  0
  1  7  1  0  0  0  0
  1 25  1  0  0  0  0
  2  3  1  0  0  0  0
  2  4  1  0  0  0  0
  2  6  1  0  0  0  0
  2 12  1  0  0  0  0
  3  5  1  0  0  0  0
  3 13  1  0  0  0  0
  3 14  1  0  0  0  0
  4  7  1  0  0  0  0
  4 15  1  0  0  0  0
  4 16  1  0  0  0  0
  5  8  1  0  0  0  0
  5 17  1  0  0  0  0
  5 18  1  0  0  0  0
  6 19  1  0  0  0  0
  6 20  1  0  0  0  0
  6 21  1  0  0  0  0
  7 22  1  0  0  0  0
  7 23  1  0  0  0  0
  8  9  2  0  0  0  0
  8 24  1  0  0  0  0
  9 10  1  0  0  0  0
  9 11  1  0  0  0  0
 10 26  1  0  0  0  0
 10 27  1  0  0  0  0
 10 28  1  0  0  0  0
 11 29  1  0  0  0  0
 11 30  1  0  0  0  0
 11 31  1  0  0  0  0
M  END
> <PUBCHEM_COMPOUND_CID>
8842

> <PUBCHEM_COMPOUND_CANONICALIZED>
1

> <PUBCHEM_CACTVS_COMPLEXITY>
112

> <PUBCHEM_CACTVS_HBOND_ACCEPTOR>
1

> <PUBCHEM_CACTVS_HBOND_DONOR>
1

> <PUBCHEM_CACTVS_ROTATABLE_BOND>
5

> <PUBCHEM_CACTVS_SUBSKEYS>
AAADceBwIAAAAAAAAAAAAAAAAAAAAAAAAAAAAAAAAAAAAAAAAAAAGgAACAAADQCggAICAAAAAgCAAiBCAAAAAAAgAAAACAAAAAgAEAIAAQAAQAAEgAAIAAOAQAAOAAAAAAAAAAAAAAAAAAAAAAAAAAAAAA==

> <PUBCHEM_IUPAC_OPENEYE_NAME>
3,7-dimethyloct-6-en-1-ol

> <PUBCHEM_IUPAC_CAS_NAME>
3,7-dimethyl-6-octen-1-ol

> <PUBCHEM_IUPAC_NAME>
3,7-dimethyloct-6-en-1-ol

> <PUBCHEM_IUPAC_SYSTEMATIC_NAME>
3,7-dimethyloct-6-en-1-ol

> <PUBCHEM_IUPAC_TRADITIONAL_NAME>
3,7-dimethyloct-6-en-1-ol

> <PUBCHEM_IUPAC_INCHI>
InChI=1S/C10H20O/c1-9(2)5-4-6-10(3)7-8-11/h5,10-11H,4,6-8H2,1-3H3

> <PUBCHEM_IUPAC_INCHIKEY>
QMVPMAAFGQKVCJ-UHFFFAOYSA-N

> <PUBCHEM_XLOGP3_AA>
3.2

> <PUBCHEM_EXACT_MASS>
156.151

> <PUBCHEM_MOLECULAR_FORMULA>
C10H20O

> <PUBCHEM_MOLECULAR_WEIGHT>
156.269

> <PUBCHEM_OPENEYE_CAN_SMILES>
CC(CCC=C(C)C)CCO

> <PUBCHEM_OPENEYE_ISO_SMILES>
CC(CCC=C(C)C)CCO

> <PUBCHEM_CACTVS_TPSA>
20.2

> <PUBCHEM_MONOISOTOPIC_WEIGHT>
156.151

> <PUBCHEM_TOTAL_CHARGE>
0

> <PUBCHEM_HEAVY_ATOM_COUNT>
11

> <PUBCHEM_ATOM_DEF_STEREO_COUNT>
0

> <PUBCHEM_ATOM_UDEF_STEREO_COUNT>
1

> <PUBCHEM_BOND_DEF_STEREO_COUNT>
0

> <PUBCHEM_BOND_UDEF_STEREO_COUNT>
0

> <PUBCHEM_ISOTOPIC_ATOM_COUNT>
0

> <PUBCHEM_COMPONENT_COUNT>
1

> <PUBCHEM_CACTVS_TAUTO_COUNT>
-1

> <PUBCHEM_COORDINATE_TYPE>
1 __ 5 __ 255

> <PUBCHEM_BONDANNOTATIONS>
2  12  3

$$$$
6432254
 OpenBabel02201912233D

 30 30  0  0  1  0  0  0  0  0999 V2000
   -0.8872   -0.8027    0.5172 O   0  0  0  0  0  0  0  0  0  0  0  0
    0.5127   -3.1624    1.2262 O   0  0  0  0  0  0  0  0  0  0  0  0
    0.5404   -0.9336    0.3101 C   0  0  1  0  0  0  0  0  0  0  0  0
   -1.2576    0.5877    0.4479 C   0  0  2  0  0  0  0  0  0  0  0  0
    1.1143    0.4742    0.2496 C   0  0  0  0  0  0  0  0  0  0  0  0
   -0.0688    1.2997   -0.1978 C   0  0  0  0  0  0  0  0  0  0  0  0
    1.1295   -1.8740    1.3937 C   0  0  0  0  0  0  0  0  0  0  0  0
   -1.5096    1.0646    1.8832 C   0  0  0  0  0  0  0  0  0  0  0  0
    2.6366   -2.0676    1.2295 C   0  0  0  0  0  0  0  0  0  0  0  0
    0.8158   -1.4302    2.8261 C   0  0  0  0  0  0  0  0  0  0  0  0
   -2.5117    0.7803   -0.3648 C   0  0  0  0  0  0  0  0  0  0  0  0
   -3.2058   -0.1677   -1.0116 C   0  0  0  0  0  0  0  0  0  0  0  0
    0.6488   -1.4126   -0.6728 H   0  0  0  0  0  0  0  0  0  0  0  0
    1.4630    0.8221    1.2264 H   0  0  0  0  0  0  0  0  0  0  0  0
    1.9596    0.5462   -0.4431 H   0  0  0  0  0  0  0  0  0  0  0  0
    0.0155    2.3520    0.0910 H   0  0  0  0  0  0  0  0  0  0  0  0
   -0.1360    1.2602   -1.2923 H   0  0  0  0  0  0  0  0  0  0  0  0
   -0.6099    0.9837    2.5004 H   0  0  0  0  0  0  0  0  0  0  0  0
   -1.8425    2.1051    1.9136 H   0  0  0  0  0  0  0  0  0  0  0  0
   -2.2704    0.4406    2.3696 H   0  0  0  0  0  0  0  0  0  0  0  0
    1.2591   -0.4600    3.0664 H   0  0  0  0  0  0  0  0  0  0  0  0
   -0.2650   -1.3787    2.9987 H   0  0  0  0  0  0  0  0  0  0  0  0
    1.1942   -2.1611    3.5502 H   0  0  0  0  0  0  0  0  0  0  0  0
    3.1834   -1.1235    1.3150 H   0  0  0  0  0  0  0  0  0  0  0  0
    3.0238   -2.7526    1.9934 H   0  0  0  0  0  0  0  0  0  0  0  0
    2.8693   -2.5237    0.2613 H   0  0  0  0  0  0  0  0  0  0  0  0
   -2.8847    1.8016   -0.4209 H   0  0  0  0  0  0  0  0  0  0  0  0
   -0.4430   -2.9809    1.1224 H   0  0  0  0  0  0  0  0  0  0  0  0
   -4.1055    0.0758   -1.5678 H   0  0  0  0  0  0  0  0  0  0  0  0
   -2.8939   -1.2082   -0.9952 H   0  0  0  0  0  0  0  0  0  0  0  0
  1  3  1  0  0  0  0
  1  4  1  0  0  0  0
  2  7  1  0  0  0  0
  2 28  1  0  0  0  0
  3  5  1  0  0  0  0
  3  7  1  0  0  0  0
  3 13  1  6  0  0  0
  4  6  1  0  0  0  0
  4 11  1  6  0  0  0
  4  8  1  0  0  0  0
  5  6  1  0  0  0  0
  5 14  1  0  0  0  0
  5 15  1  0  0  0  0
  6 16  1  0  0  0  0
  6 17  1  0  0  0  0
  7  9  1  0  0  0  0
  7 10  1  0  0  0  0
  8 18  1  0  0  0  0
  8 19  1  0  0  0  0
  8 20  1  0  0  0  0
  9 24  1  0  0  0  0
  9 25  1  0  0  0  0
  9 26  1  0  0  0  0
 10 21  1  0  0  0  0
 10 22  1  0  0  0  0
 10 23  1  0  0  0  0
 11 12  2  0  0  0  0
 11 27  1  0  0  0  0
 12 29  1  0  0  0  0
 12 30  1  0  0  0  0
M  END
> <PUBCHEM_COMPOUND_CID>
6432254

> <PUBCHEM_COMPOUND_CANONICALIZED>
1

> <PUBCHEM_CACTVS_COMPLEXITY>
186

> <PUBCHEM_CACTVS_HBOND_ACCEPTOR>
2

> <PUBCHEM_CACTVS_HBOND_DONOR>
1

> <PUBCHEM_CACTVS_ROTATABLE_BOND>
2

> <PUBCHEM_CACTVS_SUBSKEYS>
AAADceBwMAAAAAAAAAAAAAAAAAAAASAAAAAAAAAAAAAAAAAAAAAAGgAACAAADFSggAICAAAABgCAACBCAAAAAAAgAAAIAAAAAAgBBAIAIAACQAAEgAADIAGA4FQMAAAAAAAAAAAAAAAAAAAAAAAAAAAAAA==

> <PUBCHEM_IUPAC_OPENEYE_NAME>
2-[(2~{S},5~{S})-5-methyl-5-vinyl-tetrahydrofuran-2-yl]propan-2-ol

> <PUBCHEM_IUPAC_CAS_NAME>
2-[(2~{S},5~{S})-5-ethenyl-5-methyl-2-oxolanyl]-2-propanol

> <PUBCHEM_IUPAC_NAME>
2-[(2~{S},5~{S})-5-ethenyl-5-methyloxolan-2-yl]propan-2-ol

> <PUBCHEM_IUPAC_SYSTEMATIC_NAME>
2-[(2~{S},5~{S})-5-ethenyl-5-methyl-oxolan-2-yl]propan-2-ol

> <PUBCHEM_IUPAC_TRADITIONAL_NAME>
2-[(2~{S},5~{S})-5-methyl-5-vinyl-tetrahydrofuran-2-yl]propan-2-ol

> <PUBCHEM_IUPAC_INCHI>
InChI=1S/C10H18O2/c1-5-10(4)7-6-8(12-10)9(2,3)11/h5,8,11H,1,6-7H2,2-4H3/t8-,10+/m0/s1

> <PUBCHEM_IUPAC_INCHIKEY>
BRHDDEIRQPDPMG-WCBMZHEXSA-N

> <PUBCHEM_XLOGP3_AA>
1.4

> <PUBCHEM_EXACT_MASS>
170.131

> <PUBCHEM_MOLECULAR_FORMULA>
C10H18O2

> <PUBCHEM_MOLECULAR_WEIGHT>
170.252

> <PUBCHEM_OPENEYE_CAN_SMILES>
CC1(CCC(O1)C(C)(C)O)C=C

> <PUBCHEM_OPENEYE_ISO_SMILES>
C[C@]1(CC[C@H](O1)C(C)(C)O)C=C

> <PUBCHEM_CACTVS_TPSA>
29.5

> <PUBCHEM_MONOISOTOPIC_WEIGHT>
170.131

> <PUBCHEM_TOTAL_CHARGE>
0

> <PUBCHEM_HEAVY_ATOM_COUNT>
12

> <PUBCHEM_ATOM_DEF_STEREO_COUNT>
2

> <PUBCHEM_ATOM_UDEF_STEREO_COUNT>
0

> <PUBCHEM_BOND_DEF_STEREO_COUNT>
0

> <PUBCHEM_BOND_UDEF_STEREO_COUNT>
0

> <PUBCHEM_ISOTOPIC_ATOM_COUNT>
0

> <PUBCHEM_COMPONENT_COUNT>
1

> <PUBCHEM_CACTVS_TAUTO_COUNT>
-1

> <PUBCHEM_COORDINATE_TYPE>
1 __ 5 __ 255

> <PUBCHEM_BONDANNOTATIONS>
3  13  6 __ 4  8  5

$$$$
6427788
 OpenBabel02201912233D

 30 30  0  0  1  0  0  0  0  0999 V2000
    0.6129    1.1239    0.0106 O   0  0  0  0  0  0  0  0  0  0  0  0
    0.7675   -1.3388   -1.7300 O   0  0  0  0  0  0  0  0  0  0  0  0
    1.4446   -0.0305    0.2428 C   0  0  0  0  0  0  0  0  0  0  0  0
    0.7779   -1.3220   -0.2958 C   0  0  1  0  0  0  0  0  0  0  0  0
   -0.7724    1.0893    0.4058 C   0  0  2  0  0  0  0  0  0  0  0  0
   -0.6697   -1.4542    0.1732 C   0  0  0  0  0  0  0  0  0  0  0  0
   -1.4523   -0.1806   -0.1445 C   0  0  0  0  0  0  0  0  0  0  0  0
    2.7485    0.2670   -0.5247 C   0  0  0  0  0  0  0  0  0  0  0  0
    1.8276   -0.1755    1.7253 C   0  0  0  0  0  0  0  0  0  0  0  0
   -1.4178    2.3354   -0.2503 C   0  0  0  0  0  0  0  0  0  0  0  0
   -0.8671    1.3061    1.9056 C   0  0  0  0  0  0  0  0  0  0  0  0
   -1.7305    0.7450    2.7666 C   0  0  0  0  0  0  0  0  0  0  0  0
    1.3484   -2.2040    0.0165 H   0  0  0  0  0  0  0  0  0  0  0  0
   -1.1500   -2.2935   -0.3391 H   0  0  0  0  0  0  0  0  0  0  0  0
   -0.7067   -1.6635    1.2493 H   0  0  0  0  0  0  0  0  0  0  0  0
   -1.5218   -0.1054   -1.2389 H   0  0  0  0  0  0  0  0  0  0  0  0
   -2.4858   -0.2731    0.2088 H   0  0  0  0  0  0  0  0  0  0  0  0
    3.2392    1.1610   -0.1226 H   0  0  0  0  0  0  0  0  0  0  0  0
    3.4534   -0.5688   -0.4646 H   0  0  0  0  0  0  0  0  0  0  0  0
    2.5559    0.4863   -1.5814 H   0  0  0  0  0  0  0  0  0  0  0  0
    0.9848   -0.4769    2.3518 H   0  0  0  0  0  0  0  0  0  0  0  0
    2.6062   -0.9354    1.8580 H   0  0  0  0  0  0  0  0  0  0  0  0
    2.2038    0.7726    2.1258 H   0  0  0  0  0  0  0  0  0  0  0  0
   -2.0931    2.8648    0.4294 H   0  0  0  0  0  0  0  0  0  0  0  0
   -0.6594    3.0507   -0.5919 H   0  0  0  0  0  0  0  0  0  0  0  0
   -2.0192    2.0693   -1.1276 H   0  0  0  0  0  0  0  0  0  0  0  0
   -0.1556    2.0272    2.3079 H   0  0  0  0  0  0  0  0  0  0  0  0
    0.5405   -0.4368   -2.0249 H   0  0  0  0  0  0  0  0  0  0  0  0
   -1.6984    1.0010    3.8216 H   0  0  0  0  0  0  0  0  0  0  0  0
   -2.4978    0.0432    2.4566 H   0  0  0  0  0  0  0  0  0  0  0  0
  1  3  1  0  0  0  0
  1  5  1  0  0  0  0
  2 28  1  0  0  0  0
  3  4  1  0  0  0  0
  3  8  1  0  0  0  0
  3  9  1  0  0  0  0
  4  2  1  0  0  0  0
  4  6  1  0  0  0  0
  4 13  1  1  0  0  0
  5  7  1  0  0  0  0
  5 11  1  1  0  0  0
  5 10  1  0  0  0  0
  6  7  1  0  0  0  0
  6 14  1  0  0  0  0
  6 15  1  0  0  0  0
  7 16  1  0  0  0  0
  7 17  1  0  0  0  0
  8 18  1  0  0  0  0
  8 19  1  0  0  0  0
  8 20  1  0  0  0  0
  9 21  1  0  0  0  0
  9 22  1  0  0  0  0
  9 23  1  0  0  0  0
 10 24  1  0  0  0  0
 10 25  1  0  0  0  0
 10 26  1  0  0  0  0
 11 12  2  0  0  0  0
 11 27  1  0  0  0  0
 12 29  1  0  0  0  0
 12 30  1  0  0  0  0
M  END
> <PUBCHEM_COMPOUND_CID>
6427788

> <PUBCHEM_COMPOUND_CANONICALIZED>
1

> <PUBCHEM_CACTVS_COMPLEXITY>
186

> <PUBCHEM_CACTVS_HBOND_ACCEPTOR>
2

> <PUBCHEM_CACTVS_HBOND_DONOR>
1

> <PUBCHEM_CACTVS_ROTATABLE_BOND>
1

> <PUBCHEM_CACTVS_SUBSKEYS>
AAADceBwMAAAAAAAAAAAAAAAAAAAAAAAAAAkAAAAAAAAAAAAAAAAGgAACAAADFSggAICAAAABgCAACBCAAAAAAAgAAAIAAAAAAgBFAIAIAACQAAEgAADIAHAwFAMAAAAAAAAAAAAAAAAAAAAAAAAAAAAAA==

> <PUBCHEM_IUPAC_OPENEYE_NAME>
(3~{R},6~{S})-2,2,6-trimethyl-6-vinyl-tetrahydropyran-3-ol

> <PUBCHEM_IUPAC_CAS_NAME>
(3~{R},6~{S})-6-ethenyl-2,2,6-trimethyl-3-oxanol

> <PUBCHEM_IUPAC_NAME>
(3~{R},6~{S})-6-ethenyl-2,2,6-trimethyloxan-3-ol

> <PUBCHEM_IUPAC_SYSTEMATIC_NAME>
(3~{R},6~{S})-6-ethenyl-2,2,6-trimethyl-oxan-3-ol

> <PUBCHEM_IUPAC_TRADITIONAL_NAME>
(3~{R},6~{S})-2,2,6-trimethyl-6-vinyl-tetrahydropyran-3-ol

> <PUBCHEM_IUPAC_INCHI>
InChI=1S/C10H18O2/c1-5-10(4)7-6-8(11)9(2,3)12-10/h5,8,11H,1,6-7H2,2-4H3/t8-,10-/m1/s1

> <PUBCHEM_IUPAC_INCHIKEY>
BCTBAGTXFYWYMW-PSASIEDQSA-N

> <PUBCHEM_XLOGP3_AA>
1.4

> <PUBCHEM_EXACT_MASS>
170.131

> <PUBCHEM_MOLECULAR_FORMULA>
C10H18O2

> <PUBCHEM_MOLECULAR_WEIGHT>
170.252

> <PUBCHEM_OPENEYE_CAN_SMILES>
CC1(C(CCC(O1)(C)C=C)O)C

> <PUBCHEM_OPENEYE_ISO_SMILES>
C[C@]1(CC[C@H](C(O1)(C)C)O)C=C

> <PUBCHEM_CACTVS_TPSA>
29.5

> <PUBCHEM_MONOISOTOPIC_WEIGHT>
170.131

> <PUBCHEM_TOTAL_CHARGE>
0

> <PUBCHEM_HEAVY_ATOM_COUNT>
12

> <PUBCHEM_ATOM_DEF_STEREO_COUNT>
2

> <PUBCHEM_ATOM_UDEF_STEREO_COUNT>
0

> <PUBCHEM_BOND_DEF_STEREO_COUNT>
0

> <PUBCHEM_BOND_UDEF_STEREO_COUNT>
0

> <PUBCHEM_ISOTOPIC_ATOM_COUNT>
0

> <PUBCHEM_COMPONENT_COUNT>
1

> <PUBCHEM_CACTVS_TAUTO_COUNT>
-1

> <PUBCHEM_COORDINATE_TYPE>
1 __ 5 __ 255

> <PUBCHEM_BONDANNOTATIONS>
4  2  6 __ 5  10  6

$$$$
6432254_2
 OpenBabel02201912233D

 30 30  0  0  1  0  0  0  0  0999 V2000
   -0.8872   -0.8027    0.5172 O   0  0  0  0  0  0  0  0  0  0  0  0
    0.5127   -3.1624    1.2262 O   0  0  0  0  0  0  0  0  0  0  0  0
    0.5404   -0.9336    0.3101 C   0  0  1  0  0  0  0  0  0  0  0  0
   -1.2576    0.5877    0.4479 C   0  0  2  0  0  0  0  0  0  0  0  0
    1.1143    0.4742    0.2496 C   0  0  0  0  0  0  0  0  0  0  0  0
   -0.0688    1.2997   -0.1978 C   0  0  0  0  0  0  0  0  0  0  0  0
    1.1295   -1.8740    1.3937 C   0  0  0  0  0  0  0  0  0  0  0  0
   -1.5096    1.0646    1.8832 C   0  0  0  0  0  0  0  0  0  0  0  0
    2.6366   -2.0676    1.2295 C   0  0  0  0  0  0  0  0  0  0  0  0
    0.8158   -1.4302    2.8261 C   0  0  0  0  0  0  0  0  0  0  0  0
   -2.5117    0.7803   -0.3648 C   0  0  0  0  0  0  0  0  0  0  0  0
   -3.2058   -0.1677   -1.0116 C   0  0  0  0  0  0  0  0  0  0  0  0
    0.6488   -1.4126   -0.6728 H   0  0  0  0  0  0  0  0  0  0  0  0
    1.4630    0.8221    1.2264 H   0  0  0  0  0  0  0  0  0  0  0  0
    1.9596    0.5462   -0.4431 H   0  0  0  0  0  0  0  0  0  0  0  0
    0.0155    2.3520    0.0910 H   0  0  0  0  0  0  0  0  0  0  0  0
   -0.1360    1.2602   -1.2923 H   0  0  0  0  0  0  0  0  0  0  0  0
   -0.6099    0.9837    2.5004 H   0  0  0  0  0  0  0  0  0  0  0  0
   -1.8425    2.1051    1.9136 H   0  0  0  0  0  0  0  0  0  0  0  0
   -2.2704    0.4406    2.3696 H   0  0  0  0  0  0  0  0  0  0  0  0
    1.2591   -0.4600    3.0664 H   0  0  0  0  0  0  0  0  0  0  0  0
   -0.2650   -1.3787    2.9987 H   0  0  0  0  0  0  0  0  0  0  0  0
    1.1942   -2.1611    3.5502 H   0  0  0  0  0  0  0  0  0  0  0  0
    3.1834   -1.1235    1.3150 H   0  0  0  0  0  0  0  0  0  0  0  0
    3.0238   -2.7526    1.9934 H   0  0  0  0  0  0  0  0  0  0  0  0
    2.8693   -2.5237    0.2613 H   0  0  0  0  0  0  0  0  0  0  0  0
   -2.8847    1.8016   -0.4209 H   0  0  0  0  0  0  0  0  0  0  0  0
   -0.4430   -2.9809    1.1224 H   0  0  0  0  0  0  0  0  0  0  0  0
   -4.1055    0.0758   -1.5678 H   0  0  0  0  0  0  0  0  0  0  0  0
   -2.8939   -1.2082   -0.9952 H   0  0  0  0  0  0  0  0  0  0  0  0
  1  3  1  0  0  0  0
  1  4  1  0  0  0  0
  2  7  1  0  0  0  0
  2 28  1  0  0  0  0
  3  5  1  0  0  0  0
  3  7  1  0  0  0  0
  3 13  1  6  0  0  0
  4  6  1  0  0  0  0
  4 11  1  6  0  0  0
  4  8  1  0  0  0  0
  5  6  1  0  0  0  0
  5 14  1  0  0  0  0
  5 15  1  0  0  0  0
  6 16  1  0  0  0  0
  6 17  1  0  0  0  0
  7  9  1  0  0  0  0
  7 10  1  0  0  0  0
  8 18  1  0  0  0  0
  8 19  1  0  0  0  0
  8 20  1  0  0  0  0
  9 24  1  0  0  0  0
  9 25  1  0  0  0  0
  9 26  1  0  0  0  0
 10 21  1  0  0  0  0
 10 22  1  0  0  0  0
 10 23  1  0  0  0  0
 11 12  2  0  0  0  0
 11 27  1  0  0  0  0
 12 29  1  0  0  0  0
 12 30  1  0  0  0  0
M  END
> <PUBCHEM_COMPOUND_CID>
6432254

> <PUBCHEM_COMPOUND_CANONICALIZED>
1

> <PUBCHEM_CACTVS_COMPLEXITY>
186

> <PUBCHEM_CACTVS_HBOND_ACCEPTOR>
2

> <PUBCHEM_CACTVS_HBOND_DONOR>
1

> <PUBCHEM_CACTVS_ROTATABLE_BOND>
2

> <PUBCHEM_CACTVS_SUBSKEYS>
AAADceBwMAAAAAAAAAAAAAAAAAAAASAAAAAAAAAAAAAAAAAAAAAAGgAACAAADFSggAICAAAABgCAACBCAAAAAAAgAAAIAAAAAAgBBAIAIAACQAAEgAADIAGA4FQMAAAAAAAAAAAAAAAAAAAAAAAAAAAAAA==

> <PUBCHEM_IUPAC_OPENEYE_NAME>
2-[(2~{S},5~{S})-5-methyl-5-vinyl-tetrahydrofuran-2-yl]propan-2-ol

> <PUBCHEM_IUPAC_CAS_NAME>
2-[(2~{S},5~{S})-5-ethenyl-5-methyl-2-oxolanyl]-2-propanol

> <PUBCHEM_IUPAC_NAME>
2-[(2~{S},5~{S})-5-ethenyl-5-methyloxolan-2-yl]propan-2-ol

> <PUBCHEM_IUPAC_SYSTEMATIC_NAME>
2-[(2~{S},5~{S})-5-ethenyl-5-methyl-oxolan-2-yl]propan-2-ol

> <PUBCHEM_IUPAC_TRADITIONAL_NAME>
2-[(2~{S},5~{S})-5-methyl-5-vinyl-tetrahydrofuran-2-yl]propan-2-ol

> <PUBCHEM_IUPAC_INCHI>
InChI=1S/C10H18O2/c1-5-10(4)7-6-8(12-10)9(2,3)11/h5,8,11H,1,6-7H2,2-4H3/t8-,10+/m0/s1

> <PUBCHEM_IUPAC_INCHIKEY>
BRHDDEIRQPDPMG-WCBMZHEXSA-N

> <PUBCHEM_XLOGP3_AA>
1.4

> <PUBCHEM_EXACT_MASS>
170.131

> <PUBCHEM_MOLECULAR_FORMULA>
C10H18O2

> <PUBCHEM_MOLECULAR_WEIGHT>
170.252

> <PUBCHEM_OPENEYE_CAN_SMILES>
CC1(CCC(O1)C(C)(C)O)C=C

> <PUBCHEM_OPENEYE_ISO_SMILES>
C[C@]1(CC[C@H](O1)C(C)(C)O)C=C

> <PUBCHEM_CACTVS_TPSA>
29.5

> <PUBCHEM_MONOISOTOPIC_WEIGHT>
170.131

> <PUBCHEM_TOTAL_CHARGE>
0

> <PUBCHEM_HEAVY_ATOM_COUNT>
12

> <PUBCHEM_ATOM_DEF_STEREO_COUNT>
2

> <PUBCHEM_ATOM_UDEF_STEREO_COUNT>
0

> <PUBCHEM_BOND_DEF_STEREO_COUNT>
0

> <PUBCHEM_BOND_UDEF_STEREO_COUNT>
0

> <PUBCHEM_ISOTOPIC_ATOM_COUNT>
0

> <PUBCHEM_COMPONENT_COUNT>
1

> <PUBCHEM_CACTVS_TAUTO_COUNT>
-1

> <PUBCHEM_COORDINATE_TYPE>
1 __ 5 __ 255

> <PUBCHEM_BONDANNOTATIONS>
3  13  6 __ 4  8  5

$$$$
7461
 OpenBabel02201912233D

 26 26  0  0  0  0  0  0  0  0999 V2000
    0.9384   -0.0034    0.0592 C   0  0  0  0  0  0  0  0  0  0  0  0
    0.5203    1.0205    1.1052 C   0  0  0  0  0  0  0  0  0  0  0  0
   -0.4351    0.5790    2.1972 C   0  0  0  0  0  0  0  0  0  0  0  0
    0.5757    3.3753    2.0104 C   0  0  0  0  0  0  0  0  0  0  0  0
    0.9761    2.2880    1.0517 C   0  0  0  0  0  0  0  0  0  0  0  0
   -0.5101    2.9700    2.9747 C   0  0  0  0  0  0  0  0  0  0  0  0
   -0.9468    1.7004    3.0600 C   0  0  0  0  0  0  0  0  0  0  0  0
   -0.2599   -0.5332   -0.7351 C   0  0  0  0  0  0  0  0  0  0  0  0
    1.7380   -1.1587    0.6632 C   0  0  0  0  0  0  0  0  0  0  0  0
   -1.0981    4.0552    3.8286 C   0  0  0  0  0  0  0  0  0  0  0  0
    1.5993    0.4886   -0.6683 H   0  0  0  0  0  0  0  0  0  0  0  0
   -1.3088    0.0963    1.7496 H   0  0  0  0  0  0  0  0  0  0  0  0
    0.0589   -0.1557    2.8430 H   0  0  0  0  0  0  0  0  0  0  0  0
    1.4615    3.6945    2.5734 H   0  0  0  0  0  0  0  0  0  0  0  0
    0.2296    4.2327    1.4218 H   0  0  0  0  0  0  0  0  0  0  0  0
    1.6716    2.5856    0.2707 H   0  0  0  0  0  0  0  0  0  0  0  0
   -1.7275    1.4424    3.7702 H   0  0  0  0  0  0  0  0  0  0  0  0
    2.1056   -1.8233   -0.1273 H   0  0  0  0  0  0  0  0  0  0  0  0
    2.6083   -0.7871    1.2147 H   0  0  0  0  0  0  0  0  0  0  0  0
    1.1317   -1.7617    1.3467 H   0  0  0  0  0  0  0  0  0  0  0  0
    0.0764   -1.1843   -1.5492 H   0  0  0  0  0  0  0  0  0  0  0  0
   -0.9408   -1.1197   -0.1094 H   0  0  0  0  0  0  0  0  0  0  0  0
   -0.8298    0.2898   -1.1805 H   0  0  0  0  0  0  0  0  0  0  0  0
   -2.1447    4.2264    3.5550 H   0  0  0  0  0  0  0  0  0  0  0  0
   -1.0459    3.7911    4.8895 H   0  0  0  0  0  0  0  0  0  0  0  0
   -0.5628    5.0012    3.6965 H   0  0  0  0  0  0  0  0  0  0  0  0
  1  2  1  0  0  0  0
  1  8  1  0  0  0  0
  1  9  1  0  0  0  0
  1 11  1  0  0  0  0
  2  3  1  0  0  0  0
  2  5  2  0  0  0  0
  3  7  1  0  0  0  0
  3 12  1  0  0  0  0
  3 13  1  0  0  0  0
  4  5  1  0  0  0  0
  4  6  1  0  0  0  0
  4 14  1  0  0  0  0
  4 15  1  0  0  0  0
  5 16  1  0  0  0  0
  6  7  2  0  0  0  0
  6 10  1  0  0  0  0
  7 17  1  0  0  0  0
  8 21  1  0  0  0  0
  8 22  1  0  0  0  0
  8 23  1  0  0  0  0
  9 18  1  0  0  0  0
  9 19  1  0  0  0  0
  9 20  1  0  0  0  0
 10 24  1  0  0  0  0
 10 25  1  0  0  0  0
 10 26  1  0  0  0  0
M  END
> <PUBCHEM_COMPOUND_CID>
7461

> <PUBCHEM_COMPOUND_CANONICALIZED>
1

> <PUBCHEM_CACTVS_COMPLEXITY>
171

> <PUBCHEM_CACTVS_HBOND_ACCEPTOR>
0

> <PUBCHEM_CACTVS_HBOND_DONOR>
0

> <PUBCHEM_CACTVS_ROTATABLE_BOND>
1

> <PUBCHEM_CACTVS_SUBSKEYS>
AAADceBwAAAAAAAAAAAAAAAAAAAAAAAAAAAgAAAAAAAAAAAAAAAAGAAAAAAADQCAAAACAAAAAACAAiBCAAAAAAAgAAAACAAAAAgAAAIAAQAAAAAAgAAIAAIAAAAMAAAAAAAAAAAAAAAAAAAAAAAAAAAAAA==

> <PUBCHEM_IUPAC_OPENEYE_NAME>
1-isopropyl-4-methyl-cyclohexa-1,4-diene

> <PUBCHEM_IUPAC_CAS_NAME>
1-methyl-4-propan-2-ylcyclohexa-1,4-diene

> <PUBCHEM_IUPAC_NAME>
1-methyl-4-propan-2-ylcyclohexa-1,4-diene

> <PUBCHEM_IUPAC_SYSTEMATIC_NAME>
1-methyl-4-propan-2-yl-cyclohexa-1,4-diene

> <PUBCHEM_IUPAC_TRADITIONAL_NAME>
1-isopropyl-4-methyl-cyclohexa-1,4-diene

> <PUBCHEM_IUPAC_INCHI>
InChI=1S/C10H16/c1-8(2)10-6-4-9(3)5-7-10/h4,7-8H,5-6H2,1-3H3

> <PUBCHEM_IUPAC_INCHIKEY>
YKFLAYDHMOASIY-UHFFFAOYSA-N

> <PUBCHEM_XLOGP3_AA>
2.8

> <PUBCHEM_EXACT_MASS>
136.125

> <PUBCHEM_MOLECULAR_FORMULA>
C10H16

> <PUBCHEM_MOLECULAR_WEIGHT>
136.238

> <PUBCHEM_OPENEYE_CAN_SMILES>
CC1=CCC(=CC1)C(C)C

> <PUBCHEM_OPENEYE_ISO_SMILES>
CC1=CCC(=CC1)C(C)C

> <PUBCHEM_CACTVS_TPSA>
0

> <PUBCHEM_MONOISOTOPIC_WEIGHT>
136.125

> <PUBCHEM_TOTAL_CHARGE>
0

> <PUBCHEM_HEAVY_ATOM_COUNT>
10

> <PUBCHEM_ATOM_DEF_STEREO_COUNT>
0

> <PUBCHEM_ATOM_UDEF_STEREO_COUNT>
0

> <PUBCHEM_BOND_DEF_STEREO_COUNT>
0

> <PUBCHEM_BOND_UDEF_STEREO_COUNT>
0

> <PUBCHEM_ISOTOPIC_ATOM_COUNT>
0

> <PUBCHEM_COMPONENT_COUNT>
1

> <PUBCHEM_CACTVS_TAUTO_COUNT>
-1

> <PUBCHEM_COORDINATE_TYPE>
1 __ 5 __ 255

$$$$
5366264
 OpenBabel02201912233D

 27 26  0  0  1  0  0  0  0  0999 V2000
    0.9033    0.0140    0.0618 O   0  0  0  0  0  0  0  0  0  0  0  0
    0.4635   -1.2993    0.4220 C   0  0  3  0  0  0  0  0  0  0  0  0
    0.9910   -2.3210   -0.6230 C   0  0  0  0  0  0  0  0  0  0  0  0
    0.9646   -1.6064    1.8392 C   0  0  0  0  0  0  0  0  0  0  0  0
   -1.0546   -1.3165    0.4264 C   0  0  0  0  0  0  0  0  0  0  0  0
    2.4974   -2.3744   -0.7293 C   0  0  0  0  0  0  0  0  0  0  0  0
    3.2427   -3.4428   -0.4045 C   0  0  0  0  0  0  0  0  0  0  0  0
    4.6923   -3.4925   -0.4736 C   0  0  0  0  0  0  0  0  0  0  0  0
   -1.8662   -0.2856    0.1481 C   0  0  0  0  0  0  0  0  0  0  0  0
    5.3143   -4.8124   -0.8371 C   0  0  0  0  0  0  0  0  0  0  0  0
    5.4729   -2.4472   -0.1504 C   0  0  0  0  0  0  0  0  0  0  0  0
    0.5963   -3.3201   -0.3967 H   0  0  0  0  0  0  0  0  0  0  0  0
    0.6128   -2.0515   -1.6179 H   0  0  0  0  0  0  0  0  0  0  0  0
    0.5628   -0.8834    2.5592 H   0  0  0  0  0  0  0  0  0  0  0  0
    0.6754   -2.6119    2.1638 H   0  0  0  0  0  0  0  0  0  0  0  0
    2.0550   -1.5217    1.9070 H   0  0  0  0  0  0  0  0  0  0  0  0
   -1.5170   -2.2659    0.6930 H   0  0  0  0  0  0  0  0  0  0  0  0
    2.9745   -1.4729   -1.1075 H   0  0  0  0  0  0  0  0  0  0  0  0
    1.8536    0.0640    0.2546 H   0  0  0  0  0  0  0  0  0  0  0  0
    2.7526   -4.3543   -0.0652 H   0  0  0  0  0  0  0  0  0  0  0  0
   -2.9445   -0.3939    0.1869 H   0  0  0  0  0  0  0  0  0  0  0  0
   -1.4698    0.6897   -0.1202 H   0  0  0  0  0  0  0  0  0  0  0  0
    5.9528   -4.7065   -1.7208 H   0  0  0  0  0  0  0  0  0  0  0  0
    5.9261   -5.1879   -0.0086 H   0  0  0  0  0  0  0  0  0  0  0  0
    4.5643   -5.5777   -1.0641 H   0  0  0  0  0  0  0  0  0  0  0  0
    5.0644   -1.4911    0.1597 H   0  0  0  0  0  0  0  0  0  0  0  0
    6.5556   -2.5261   -0.1800 H   0  0  0  0  0  0  0  0  0  0  0  0
  1  2  1  0  0  0  0
  1 19  1  0  0  0  0
  2  3  1  0  0  0  0
  2  4  1  0  0  0  0
  2  5  1  0  0  0  0
  3  6  1  0  0  0  0
  3 12  1  0  0  0  0
  3 13  1  0  0  0  0
  4 14  1  0  0  0  0
  4 15  1  0  0  0  0
  4 16  1  0  0  0  0
  5  9  2  0  0  0  0
  5 17  1  0  0  0  0
  6  7  2  0  0  0  0
  6 18  1  0  0  0  0
  7  8  1  0  0  0  0
  7 20  1  0  0  0  0
  8 10  1  0  0  0  0
  8 11  2  0  0  0  0
  9 21  1  0  0  0  0
  9 22  1  0  0  0  0
 10 23  1  0  0  0  0
 10 24  1  0  0  0  0
 10 25  1  0  0  0  0
 11 26  1  0  0  0  0
 11 27  1  0  0  0  0
M  END
> <PUBCHEM_COMPOUND_CID>
5366264

> <PUBCHEM_COMPOUND_CANONICALIZED>
1

> <PUBCHEM_CACTVS_COMPLEXITY>
179

> <PUBCHEM_CACTVS_HBOND_ACCEPTOR>
1

> <PUBCHEM_CACTVS_HBOND_DONOR>
1

> <PUBCHEM_CACTVS_ROTATABLE_BOND>
4

> <PUBCHEM_CACTVS_SUBSKEYS>
AAADceBwIAAAAAAAAAAAAAAAAAAAAAAAAAAAAAAAAAAAAAAAAAAAGgAACAAADESAgAACAAAAAgCAAiBCAAAAAAAgAAAICAAAAAgIBAAAAQAAQAAAwAAIkAIAAAAIAAAAAAAAAAAAAAAAAAAAAAAAAAAAAA==

> <PUBCHEM_IUPAC_OPENEYE_NAME>
(5~{E})-3,7-dimethylocta-1,5,7-trien-3-ol

> <PUBCHEM_IUPAC_CAS_NAME>
(5~{E})-3,7-dimethyl-3-octa-1,5,7-trienol

> <PUBCHEM_IUPAC_NAME>
(5~{E})-3,7-dimethylocta-1,5,7-trien-3-ol

> <PUBCHEM_IUPAC_SYSTEMATIC_NAME>
(5~{E})-3,7-dimethylocta-1,5,7-trien-3-ol

> <PUBCHEM_IUPAC_TRADITIONAL_NAME>
(5~{E})-3,7-dimethylocta-1,5,7-trien-3-ol

> <PUBCHEM_IUPAC_INCHI>
InChI=1S/C10H16O/c1-5-10(4,11)8-6-7-9(2)3/h5-7,11H,1-2,8H2,3-4H3/b7-6+

> <PUBCHEM_IUPAC_INCHIKEY>
ZJIQIJIQBTVTDY-VOTSOKGWSA-N

> <PUBCHEM_XLOGP3_AA>
2.8

> <PUBCHEM_EXACT_MASS>
152.12

> <PUBCHEM_MOLECULAR_FORMULA>
C10H16O

> <PUBCHEM_MOLECULAR_WEIGHT>
152.237

> <PUBCHEM_OPENEYE_CAN_SMILES>
CC(=C)C=CCC(C)(C=C)O

> <PUBCHEM_OPENEYE_ISO_SMILES>
CC(=C)/C=C/CC(C)(C=C)O

> <PUBCHEM_CACTVS_TPSA>
20.2

> <PUBCHEM_MONOISOTOPIC_WEIGHT>
152.12

> <PUBCHEM_TOTAL_CHARGE>
0

> <PUBCHEM_HEAVY_ATOM_COUNT>
11

> <PUBCHEM_ATOM_DEF_STEREO_COUNT>
0

> <PUBCHEM_ATOM_UDEF_STEREO_COUNT>
1

> <PUBCHEM_BOND_DEF_STEREO_COUNT>
1

> <PUBCHEM_BOND_UDEF_STEREO_COUNT>
0

> <PUBCHEM_ISOTOPIC_ATOM_COUNT>
0

> <PUBCHEM_COMPONENT_COUNT>
1

> <PUBCHEM_CACTVS_TAUTO_COUNT>
1

> <PUBCHEM_COORDINATE_TYPE>
1 __ 5 __ 255

> <PUBCHEM_BONDANNOTATIONS>
2  1  3

$$$$
44135602
 OpenBabel02201912233D

 40 41  0  0  1  0  0  0  0  0999 V2000
    3.8260    0.4059    0.6535 O   0  0  0  0  0  0  0  0  0  0  0  0
    2.4122   -1.0834    1.5197 O   0  0  0  0  0  0  0  0  0  0  0  0
   -3.0859    0.5584   -2.1701 C   0  0  3  0  0  0  0  0  0  0  0  0
   -4.0430   -0.5984   -2.6066 C   0  0  0  0  0  0  0  0  0  0  0  0
   -2.9096   -1.2830   -3.4164 C   0  0  3  0  0  0  0  0  0  0  0  0
   -1.9444   -0.2272   -1.4473 C   0  0  3  0  0  0  0  0  0  0  0  0
   -1.7421   -1.4312   -2.3975 C   0  0  0  0  0  0  0  0  0  0  0  0
   -2.5541    1.0838   -3.5415 C   0  0  0  0  0  0  0  0  0  0  0  0
   -2.4744   -0.1864   -4.4037 C   0  0  0  0  0  0  0  0  0  0  0  0
   -3.6992    1.6609   -1.3251 C   0  0  0  0  0  0  0  0  0  0  0  0
   -5.2611   -0.1330   -3.4326 C   0  0  0  0  0  0  0  0  0  0  0  0
   -4.6084   -1.4921   -1.4840 C   0  0  0  0  0  0  0  0  0  0  0  0
   -0.6855    0.5802   -1.1056 C   0  0  0  0  0  0  0  0  0  0  0  0
    0.3700   -0.2328   -0.3533 C   0  0  0  0  0  0  0  0  0  0  0  0
    1.5542    0.6532    0.0344 C   0  0  0  0  0  0  0  0  0  0  0  0
    2.5937   -0.1162    0.7988 C   0  0  0  0  0  0  0  0  0  0  0  0
   -3.1776   -2.2224   -3.9062 H   0  0  0  0  0  0  0  0  0  0  0  0
   -2.3282   -0.6035   -0.4893 H   0  0  0  0  0  0  0  0  0  0  0  0
   -0.7662   -1.4209   -2.8952 H   0  0  0  0  0  0  0  0  0  0  0  0
   -1.8177   -2.3738   -1.8450 H   0  0  0  0  0  0  0  0  0  0  0  0
   -1.5819    1.5777   -3.4738 H   0  0  0  0  0  0  0  0  0  0  0  0
   -3.2345    1.8126   -3.9953 H   0  0  0  0  0  0  0  0  0  0  0  0
   -1.4689   -0.3512   -4.8045 H   0  0  0  0  0  0  0  0  0  0  0  0
   -3.1585   -0.1234   -5.2572 H   0  0  0  0  0  0  0  0  0  0  0  0
   -4.5639    2.1111   -1.8227 H   0  0  0  0  0  0  0  0  0  0  0  0
   -4.0305    1.2811   -0.3538 H   0  0  0  0  0  0  0  0  0  0  0  0
   -2.9777    2.4641   -1.1430 H   0  0  0  0  0  0  0  0  0  0  0  0
   -3.8561   -2.0702   -0.9430 H   0  0  0  0  0  0  0  0  0  0  0  0
   -5.1575   -0.8940   -0.7493 H   0  0  0  0  0  0  0  0  0  0  0  0
   -5.3069   -2.2291   -1.8990 H   0  0  0  0  0  0  0  0  0  0  0  0
   -5.7450   -0.9857   -3.9211 H   0  0  0  0  0  0  0  0  0  0  0  0
   -6.0042    0.3423   -2.7806 H   0  0  0  0  0  0  0  0  0  0  0  0
   -5.0307    0.5938   -4.2143 H   0  0  0  0  0  0  0  0  0  0  0  0
   -0.9781    1.4289   -0.4746 H   0  0  0  0  0  0  0  0  0  0  0  0
   -0.2245    0.9976   -2.0046 H   0  0  0  0  0  0  0  0  0  0  0  0
    0.7254   -1.0622   -0.9767 H   0  0  0  0  0  0  0  0  0  0  0  0
   -0.0732   -0.6793    0.5458 H   0  0  0  0  0  0  0  0  0  0  0  0
    1.2271    1.4909    0.6605 H   0  0  0  0  0  0  0  0  0  0  0  0
    2.0138    1.0592   -0.8741 H   0  0  0  0  0  0  0  0  0  0  0  0
    4.3930   -0.1666    1.2116 H   0  0  0  0  0  0  0  0  0  0  0  0
  1 16  1  0  0  0  0
  1 40  1  0  0  0  0
  2 16  2  0  0  0  0
  3  4  1  0  0  0  0
  3  6  1  0  0  0  0
  3  8  1  0  0  0  0
  3 10  1  0  0  0  0
  4  5  1  0  0  0  0
  4 11  1  0  0  0  0
  4 12  1  0  0  0  0
  5  7  1  0  0  0  0
  5  9  1  0  0  0  0
  5 17  1  0  0  0  0
  6  7  1  0  0  0  0
  6 13  1  0  0  0  0
  6 18  1  0  0  0  0
  7 19  1  0  0  0  0
  7 20  1  0  0  0  0
  8  9  1  0  0  0  0
  8 21  1  0  0  0  0
  8 22  1  0  0  0  0
  9 23  1  0  0  0  0
  9 24  1  0  0  0  0
 10 25  1  0  0  0  0
 10 26  1  0  0  0  0
 10 27  1  0  0  0  0
 11 31  1  0  0  0  0
 11 32  1  0  0  0  0
 11 33  1  0  0  0  0
 12 28  1  0  0  0  0
 12 29  1  0  0  0  0
 12 30  1  0  0  0  0
 13 14  1  0  0  0  0
 13 34  1  0  0  0  0
 13 35  1  0  0  0  0
 14 15  1  0  0  0  0
 14 36  1  0  0  0  0
 14 37  1  0  0  0  0
 15 16  1  0  0  0  0
 15 38  1  0  0  0  0
 15 39  1  0  0  0  0
M  END
> <PUBCHEM_COMPOUND_CID>
44135602

> <PUBCHEM_COMPOUND_CANONICALIZED>
1

> <PUBCHEM_CACTVS_COMPLEXITY>
295

> <PUBCHEM_CACTVS_HBOND_ACCEPTOR>
2

> <PUBCHEM_CACTVS_HBOND_DONOR>
1

> <PUBCHEM_CACTVS_ROTATABLE_BOND>
4

> <PUBCHEM_CACTVS_SUBSKEYS>
AAADceBwMAAAAAAAAAAAAAAAAAAAAYMAAAAwAAAAAAAAAAAAAAAAGgAACAAADwCAgAACCAAAAgAIAACQCAAAAAAAAAAAAAEAAAAAABIAAAAAQAAEAAAAAAGIyPCPgAAAAAAAAACAAAQAACAAAQAACAAAAA==

> <PUBCHEM_IUPAC_OPENEYE_NAME>
4-(1,7,7-trimethylnorbornan-2-yl)butanoic acid

> <PUBCHEM_IUPAC_CAS_NAME>
4-(1,7,7-trimethyl-2-bicyclo[2.2.1]heptanyl)butanoic acid

> <PUBCHEM_IUPAC_NAME>
4-(1,7,7-trimethyl-2-bicyclo[2.2.1]heptanyl)butanoic acid

> <PUBCHEM_IUPAC_SYSTEMATIC_NAME>
4-(1,7,7-trimethyl-2-bicyclo[2.2.1]heptanyl)butanoic acid

> <PUBCHEM_IUPAC_TRADITIONAL_NAME>
4-(2-bornyl)butyric acid

> <PUBCHEM_IUPAC_INCHI>
InChI=1S/C14H24O2/c1-13(2)10-7-8-14(13,3)11(9-10)5-4-6-12(15)16/h10-11H,4-9H2,1-3H3,(H,15,16)

> <PUBCHEM_IUPAC_INCHIKEY>
JFUSVTFHXUHNIN-UHFFFAOYSA-N

> <PUBCHEM_XLOGP3_AA>
4.2

> <PUBCHEM_EXACT_MASS>
224.178

> <PUBCHEM_MOLECULAR_FORMULA>
C14H24O2

> <PUBCHEM_MOLECULAR_WEIGHT>
224.344

> <PUBCHEM_OPENEYE_CAN_SMILES>
CC1(C2CCC1(C(C2)CCCC(=O)O)C)C

> <PUBCHEM_OPENEYE_ISO_SMILES>
CC1(C2CCC1(C(C2)CCCC(=O)O)C)C

> <PUBCHEM_CACTVS_TPSA>
37.3

> <PUBCHEM_MONOISOTOPIC_WEIGHT>
224.178

> <PUBCHEM_TOTAL_CHARGE>
0

> <PUBCHEM_HEAVY_ATOM_COUNT>
16

> <PUBCHEM_ATOM_DEF_STEREO_COUNT>
0

> <PUBCHEM_ATOM_UDEF_STEREO_COUNT>
3

> <PUBCHEM_BOND_DEF_STEREO_COUNT>
0

> <PUBCHEM_BOND_UDEF_STEREO_COUNT>
0

> <PUBCHEM_ISOTOPIC_ATOM_COUNT>
0

> <PUBCHEM_COMPONENT_COUNT>
1

> <PUBCHEM_CACTVS_TAUTO_COUNT>
-1

> <PUBCHEM_COORDINATE_TYPE>
1 __ 5 __ 255

> <PUBCHEM_BONDANNOTATIONS>
3  4  3 __ 5  4  3 __ 6  13  3

$$$$
89306
 OpenBabel02201912233D

 37 38  0  0  1  0  0  0  0  0999 V2000
    1.1022    0.0097    0.1222 O   0  0  0  0  0  0  0  0  0  0  0  0
    1.7071   -1.5653   -1.4339 O   0  0  0  0  0  0  0  0  0  0  0  0
   -1.1981    0.8136   -0.3761 C   0  0  3  0  0  0  0  0  0  0  0  0
   -1.7138    2.0420   -1.1880 C   0  0  0  0  0  0  0  0  0  0  0  0
   -0.5803    2.9377   -0.6212 C   0  0  3  0  0  0  0  0  0  0  0  0
    0.2876    0.6909   -0.8466 C   0  0  3  0  0  0  0  0  0  0  0  0
   -1.1960    1.3487    1.0838 C   0  0  0  0  0  0  0  0  0  0  0  0
    0.7158    2.1681   -0.9766 C   0  0  0  0  0  0  0  0  0  0  0  0
   -0.7519    2.8111    0.9088 C   0  0  0  0  0  0  0  0  0  0  0  0
   -1.9762   -0.4803   -0.5252 C   0  0  0  0  0  0  0  0  0  0  0  0
   -3.1356    2.5251   -0.8307 C   0  0  0  0  0  0  0  0  0  0  0  0
   -1.6927    1.8908   -2.7223 C   0  0  0  0  0  0  0  0  0  0  0  0
    1.7555   -1.1037   -0.2986 C   0  0  0  0  0  0  0  0  0  0  0  0
    2.4951   -1.8046    0.8204 C   0  0  0  0  0  0  0  0  0  0  0  0
    3.0092   -0.9039    1.9286 C   0  0  0  0  0  0  0  0  0  0  0  0
   -0.5768    3.9729   -0.9707 H   0  0  0  0  0  0  0  0  0  0  0  0
    0.3425    0.2090   -1.8289 H   0  0  0  0  0  0  0  0  0  0  0  0
   -0.5216    0.7986    1.7474 H   0  0  0  0  0  0  0  0  0  0  0  0
   -2.1914    1.2997    1.5392 H   0  0  0  0  0  0  0  0  0  0  0  0
    1.5553    2.4316   -0.3251 H   0  0  0  0  0  0  0  0  0  0  0  0
    1.0167    2.3884   -2.0067 H   0  0  0  0  0  0  0  0  0  0  0  0
    0.1749    3.0219    1.4525 H   0  0  0  0  0  0  0  0  0  0  0  0
   -1.5161    3.4989    1.2858 H   0  0  0  0  0  0  0  0  0  0  0  0
   -3.0151   -0.3601   -0.2013 H   0  0  0  0  0  0  0  0  0  0  0  0
   -1.9889   -0.8177   -1.5667 H   0  0  0  0  0  0  0  0  0  0  0  0
   -1.5299   -1.2782    0.0776 H   0  0  0  0  0  0  0  0  0  0  0  0
   -0.7373    1.5635   -3.1363 H   0  0  0  0  0  0  0  0  0  0  0  0
   -3.3434    3.4864   -1.3160 H   0  0  0  0  0  0  0  0  0  0  0  0
   -3.8869    1.8077   -1.1801 H   0  0  0  0  0  0  0  0  0  0  0  0
   -3.3138    2.6704    0.2364 H   0  0  0  0  0  0  0  0  0  0  0  0
   -2.4454    1.1640   -3.0490 H   0  0  0  0  0  0  0  0  0  0  0  0
   -1.9284    2.8483   -3.2019 H   0  0  0  0  0  0  0  0  0  0  0  0
    1.8329   -2.5699    1.2384 H   0  0  0  0  0  0  0  0  0  0  0  0
    3.3573   -2.3122    0.3686 H   0  0  0  0  0  0  0  0  0  0  0  0
    2.1844   -0.4519    2.4884 H   0  0  0  0  0  0  0  0  0  0  0  0
    3.6129   -1.4854    2.6338 H   0  0  0  0  0  0  0  0  0  0  0  0
    3.6326   -0.0981    1.5289 H   0  0  0  0  0  0  0  0  0  0  0  0
  1  6  1  0  0  0  0
  1 13  1  0  0  0  0
  2 13  2  0  0  0  0
  3  4  1  0  0  0  0
  3  6  1  0  0  0  0
  3  7  1  0  0  0  0
  3 10  1  0  0  0  0
  4  5  1  0  0  0  0
  4 11  1  0  0  0  0
  4 12  1  0  0  0  0
  5  8  1  0  0  0  0
  5  9  1  0  0  0  0
  5 16  1  0  0  0  0
  6  8  1  0  0  0  0
  6 17  1  0  0  0  0
  7  9  1  0  0  0  0
  7 18  1  0  0  0  0
  7 19  1  0  0  0  0
  8 20  1  0  0  0  0
  8 21  1  0  0  0  0
  9 22  1  0  0  0  0
  9 23  1  0  0  0  0
 10 24  1  0  0  0  0
 10 25  1  0  0  0  0
 10 26  1  0  0  0  0
 11 28  1  0  0  0  0
 11 29  1  0  0  0  0
 11 30  1  0  0  0  0
 12 27  1  0  0  0  0
 12 31  1  0  0  0  0
 12 32  1  0  0  0  0
 13 14  1  0  0  0  0
 14 15  1  0  0  0  0
 14 33  1  0  0  0  0
 14 34  1  0  0  0  0
 15 35  1  0  0  0  0
 15 36  1  0  0  0  0
 15 37  1  0  0  0  0
M  END
> <PUBCHEM_COMPOUND_CID>
89306

> <PUBCHEM_COMPOUND_CANONICALIZED>
1

> <PUBCHEM_CACTVS_COMPLEXITY>
282

> <PUBCHEM_CACTVS_HBOND_ACCEPTOR>
2

> <PUBCHEM_CACTVS_HBOND_DONOR>
0

> <PUBCHEM_CACTVS_ROTATABLE_BOND>
3

> <PUBCHEM_CACTVS_SUBSKEYS>
AAADceBwMAAAAAAAAAAAAAAAAAAAAYMAAAAwAAAAAAAAAAAAAAAAGgAAAAAADxSggAICCAAABAAIAACQCAAAAAAAAAAAAAEAAAAAAAIAAAACAAAEAAAAAAGAwPAPgAAAAAAAAACAAAIAABAAAYAADAAAAA==

> <PUBCHEM_IUPAC_OPENEYE_NAME>
(1,7,7-trimethylnorbornan-2-yl) propanoate

> <PUBCHEM_IUPAC_CAS_NAME>
propanoic acid (1,7,7-trimethyl-2-bicyclo[2.2.1]heptanyl) ester

> <PUBCHEM_IUPAC_NAME>
(1,7,7-trimethyl-2-bicyclo[2.2.1]heptanyl) propanoate

> <PUBCHEM_IUPAC_SYSTEMATIC_NAME>
(1,7,7-trimethyl-2-bicyclo[2.2.1]heptanyl) propanoate

> <PUBCHEM_IUPAC_TRADITIONAL_NAME>
propionic acid 2-bornyl ester

> <PUBCHEM_IUPAC_INCHI>
InChI=1S/C13H22O2/c1-5-11(14)15-10-8-9-6-7-13(10,4)12(9,2)3/h9-10H,5-8H2,1-4H3

> <PUBCHEM_IUPAC_INCHIKEY>
FAFMZORPAAGQFV-UHFFFAOYSA-N

> <PUBCHEM_XLOGP3>
3.8

> <PUBCHEM_EXACT_MASS>
210.162

> <PUBCHEM_MOLECULAR_FORMULA>
C13H22O2

> <PUBCHEM_MOLECULAR_WEIGHT>
210.317

> <PUBCHEM_OPENEYE_CAN_SMILES>
CCC(=O)OC1CC2CCC1(C2(C)C)C

> <PUBCHEM_OPENEYE_ISO_SMILES>
CCC(=O)OC1CC2CCC1(C2(C)C)C

> <PUBCHEM_CACTVS_TPSA>
26.3

> <PUBCHEM_MONOISOTOPIC_WEIGHT>
210.162

> <PUBCHEM_TOTAL_CHARGE>
0

> <PUBCHEM_HEAVY_ATOM_COUNT>
15

> <PUBCHEM_ATOM_DEF_STEREO_COUNT>
0

> <PUBCHEM_ATOM_UDEF_STEREO_COUNT>
3

> <PUBCHEM_BOND_DEF_STEREO_COUNT>
0

> <PUBCHEM_BOND_UDEF_STEREO_COUNT>
0

> <PUBCHEM_ISOTOPIC_ATOM_COUNT>
0

> <PUBCHEM_COMPONENT_COUNT>
1

> <PUBCHEM_CACTVS_TAUTO_COUNT>
-1

> <PUBCHEM_COORDINATE_TYPE>
1 __ 5 __ 255

> <PUBCHEM_BONDANNOTATIONS>
6  1  3 __ 3  4  3 __ 5  4  3

$$$$
5464156
 OpenBabel02201912233D

 29 28  0  0  1  0  0  0  0  0999 V2000
    3.0431   -3.3455   -1.7178 O   0  0  0  0  0  0  0  0  0  0  0  0
    1.1127   -2.5354   -0.4365 C   0  0  1  0  0  0  0  0  0  0  0  0
    0.6480   -1.4145    0.5297 C   0  0  0  0  0  0  0  0  0  0  0  0
    2.6392   -2.4632   -0.6669 C   0  0  0  0  0  0  0  0  0  0  0  0
    0.5818   -3.9097   -0.0001 C   0  0  0  0  0  0  0  0  0  0  0  0
    1.1885   -1.5725    1.9286 C   0  0  0  0  0  0  0  0  0  0  0  0
    1.9337   -0.6930    2.6236 C   0  0  0  0  0  0  0  0  0  0  0  0
   -0.8457   -4.2187   -0.3689 C   0  0  0  0  0  0  0  0  0  0  0  0
    1.2928   -4.8216    0.6881 C   0  0  0  0  0  0  0  0  0  0  0  0
    2.4811   -1.0550    3.9775 C   0  0  0  0  0  0  0  0  0  0  0  0
    2.2805    0.6801    2.1236 C   0  0  0  0  0  0  0  0  0  0  0  0
    0.6629   -2.3334   -1.4197 H   0  0  0  0  0  0  0  0  0  0  0  0
    0.9350   -0.4448    0.1038 H   0  0  0  0  0  0  0  0  0  0  0  0
   -0.4482   -1.4059    0.5843 H   0  0  0  0  0  0  0  0  0  0  0  0
    3.2189   -2.7022    0.2303 H   0  0  0  0  0  0  0  0  0  0  0  0
    2.9235   -1.4522   -0.9793 H   0  0  0  0  0  0  0  0  0  0  0  0
    0.9479   -2.5242    2.4043 H   0  0  0  0  0  0  0  0  0  0  0  0
   -0.8913   -5.1086   -1.0054 H   0  0  0  0  0  0  0  0  0  0  0  0
   -1.4459   -4.3920    0.5304 H   0  0  0  0  0  0  0  0  0  0  0  0
   -1.3108   -3.3955   -0.9204 H   0  0  0  0  0  0  0  0  0  0  0  0
    2.3128   -4.6439    1.0137 H   0  0  0  0  0  0  0  0  0  0  0  0
    0.8550   -5.7727    0.9801 H   0  0  0  0  0  0  0  0  0  0  0  0
    3.5729   -0.9707    3.9736 H   0  0  0  0  0  0  0  0  0  0  0  0
    2.0797   -0.3890    4.7475 H   0  0  0  0  0  0  0  0  0  0  0  0
    2.2355   -2.0842    4.2617 H   0  0  0  0  0  0  0  0  0  0  0  0
    2.8975    0.6220    1.2209 H   0  0  0  0  0  0  0  0  0  0  0  0
    1.3722    1.2519    1.9065 H   0  0  0  0  0  0  0  0  0  0  0  0
    2.8444    1.2446    2.8740 H   0  0  0  0  0  0  0  0  0  0  0  0
    2.7183   -4.2336   -1.4817 H   0  0  0  0  0  0  0  0  0  0  0  0
  1  4  1  0  0  0  0
  1 29  1  0  0  0  0
  2  5  1  0  0  0  0
  2 12  1  6  0  0  0
  2  4  1  0  0  0  0
  2  3  1  0  0  0  0
  3  6  1  0  0  0  0
  3 13  1  0  0  0  0
  3 14  1  0  0  0  0
  4 15  1  0  0  0  0
  4 16  1  0  0  0  0
  5  8  1  0  0  0  0
  5  9  2  0  0  0  0
  6  7  2  0  0  0  0
  6 17  1  0  0  0  0
  7 10  1  0  0  0  0
  7 11  1  0  0  0  0
  8 18  1  0  0  0  0
  8 19  1  0  0  0  0
  8 20  1  0  0  0  0
  9 21  1  0  0  0  0
  9 22  1  0  0  0  0
 10 23  1  0  0  0  0
 10 24  1  0  0  0  0
 10 25  1  0  0  0  0
 11 26  1  0  0  0  0
 11 27  1  0  0  0  0
 11 28  1  0  0  0  0
M  END
> <PUBCHEM_COMPOUND_CID>
5464156

> <PUBCHEM_COMPOUND_CANONICALIZED>
1

> <PUBCHEM_CACTVS_COMPLEXITY>
152

> <PUBCHEM_CACTVS_HBOND_ACCEPTOR>
1

> <PUBCHEM_CACTVS_HBOND_DONOR>
1

> <PUBCHEM_CACTVS_ROTATABLE_BOND>
4

> <PUBCHEM_CACTVS_SUBSKEYS>
AAADceBwIAAAAAAAAAAAAAAAAAAAAAAAAAAAAAAAAAAAAAAAAAAAGgAACAAADQCggAICAAAAAgCAAiBCAAAAAAAgAAAACAAAAAgAEAIAAQAAQAAEwAAIAAIAAAAKAAAAAAAAAAAAAAAAAAAAAAAAAAAAAA==

> <PUBCHEM_IUPAC_OPENEYE_NAME>
(2~{R})-2-isopropenyl-5-methyl-hex-4-en-1-ol

> <PUBCHEM_IUPAC_CAS_NAME>
(2~{R})-5-methyl-2-(1-methylethenyl)-4-hexen-1-ol

> <PUBCHEM_IUPAC_NAME>
(2~{R})-5-methyl-2-prop-1-en-2-ylhex-4-en-1-ol

> <PUBCHEM_IUPAC_SYSTEMATIC_NAME>
(2~{R})-5-methyl-2-prop-1-en-2-yl-hex-4-en-1-ol

> <PUBCHEM_IUPAC_TRADITIONAL_NAME>
(2~{R})-2-isopropenyl-5-methyl-hex-4-en-1-ol

> <PUBCHEM_IUPAC_INCHI>
InChI=1S/C10H18O/c1-8(2)5-6-10(7-11)9(3)4/h5,10-11H,3,6-7H2,1-2,4H3/t10-/m0/s1

> <PUBCHEM_IUPAC_INCHIKEY>
CZVXBFUKBZRMKR-JTQLQIEISA-N

> <PUBCHEM_XLOGP3_AA>
3

> <PUBCHEM_EXACT_MASS>
154.136

> <PUBCHEM_MOLECULAR_FORMULA>
C10H18O

> <PUBCHEM_MOLECULAR_WEIGHT>
154.253

> <PUBCHEM_OPENEYE_CAN_SMILES>
CC(=CCC(CO)C(=C)C)C

> <PUBCHEM_OPENEYE_ISO_SMILES>
CC(=CC[C@@H](CO)C(=C)C)C

> <PUBCHEM_CACTVS_TPSA>
20.2

> <PUBCHEM_MONOISOTOPIC_WEIGHT>
154.136

> <PUBCHEM_TOTAL_CHARGE>
0

> <PUBCHEM_HEAVY_ATOM_COUNT>
11

> <PUBCHEM_ATOM_DEF_STEREO_COUNT>
1

> <PUBCHEM_ATOM_UDEF_STEREO_COUNT>
0

> <PUBCHEM_BOND_DEF_STEREO_COUNT>
0

> <PUBCHEM_BOND_UDEF_STEREO_COUNT>
0

> <PUBCHEM_ISOTOPIC_ATOM_COUNT>
0

> <PUBCHEM_COMPONENT_COUNT>
1

> <PUBCHEM_CACTVS_TAUTO_COUNT>
1

> <PUBCHEM_COORDINATE_TYPE>
1 __ 5 __ 255

> <PUBCHEM_BONDANNOTATIONS>
2  4  6

$$$$
6428244
 OpenBabel02201912233D

 30 30  0  0  1  0  0  0  0  0999 V2000
   -0.7898   -0.8960    0.2550 O   0  0  0  0  0  0  0  0  0  0  0  0
    0.9635   -3.9338    0.0768 O   0  0  0  0  0  0  0  0  0  0  0  0
    0.6535   -0.9654    0.1962 C   0  0  1  0  0  0  0  0  0  0  0  0
   -1.1934    0.4732    0.4415 C   0  0  2  0  0  0  0  0  0  0  0  0
    1.1704    0.4727    0.2390 C   0  0  0  0  0  0  0  0  0  0  0  0
   -0.0430    1.2917   -0.1323 C   0  0  0  0  0  0  0  0  0  0  0  0
    1.1527   -1.8536    1.3519 C   0  0  3  0  0  0  0  0  0  0  0  0
   -1.3928    0.7050    1.9453 C   0  0  0  0  0  0  0  0  0  0  0  0
    0.5653   -3.2715    1.2704 C   0  0  0  0  0  0  0  0  0  0  0  0
   -2.4803    0.7697   -0.2886 C   0  0  0  0  0  0  0  0  0  0  0  0
    2.6798   -1.9049    1.4319 C   0  0  0  0  0  0  0  0  0  0  0  0
   -3.1801   -0.0810   -1.0528 C   0  0  0  0  0  0  0  0  0  0  0  0
    0.9094   -1.4134   -0.7718 H   0  0  0  0  0  0  0  0  0  0  0  0
    1.5125    0.7509    1.2397 H   0  0  0  0  0  0  0  0  0  0  0  0
    2.0066    0.6265   -0.4505 H   0  0  0  0  0  0  0  0  0  0  0  0
    0.0047    2.3155    0.2537 H   0  0  0  0  0  0  0  0  0  0  0  0
   -0.1081    1.3492   -1.2268 H   0  0  0  0  0  0  0  0  0  0  0  0
    0.7882   -1.4318    2.2963 H   0  0  0  0  0  0  0  0  0  0  0  0
   -0.5245    0.3855    2.5289 H   0  0  0  0  0  0  0  0  0  0  0  0
   -1.5838    1.7599    2.1708 H   0  0  0  0  0  0  0  0  0  0  0  0
   -2.2373    0.1135    2.3175 H   0  0  0  0  0  0  0  0  0  0  0  0
    0.9172   -3.8719    2.1151 H   0  0  0  0  0  0  0  0  0  0  0  0
   -0.5285   -3.2598    1.3182 H   0  0  0  0  0  0  0  0  0  0  0  0
   -2.8723    1.7778   -0.1638 H   0  0  0  0  0  0  0  0  0  0  0  0
    3.1059   -0.9100    1.5930 H   0  0  0  0  0  0  0  0  0  0  0  0
    2.9950   -2.5268    2.2768 H   0  0  0  0  0  0  0  0  0  0  0  0
    3.1192   -2.3197    0.5196 H   0  0  0  0  0  0  0  0  0  0  0  0
   -4.1027    0.2296   -1.5318 H   0  0  0  0  0  0  0  0  0  0  0  0
   -2.8471   -1.1018   -1.2193 H   0  0  0  0  0  0  0  0  0  0  0  0
    0.3544   -3.6365   -0.6229 H   0  0  0  0  0  0  0  0  0  0  0  0
  1  3  1  0  0  0  0
  1  4  1  0  0  0  0
  2  9  1  0  0  0  0
  2 30  1  0  0  0  0
  3  5  1  0  0  0  0
  3  7  1  0  0  0  0
  3 13  1  6  0  0  0
  4  6  1  0  0  0  0
  4 10  1  6  0  0  0
  4  8  1  0  0  0  0
  5  6  1  0  0  0  0
  5 14  1  0  0  0  0
  5 15  1  0  0  0  0
  6 16  1  0  0  0  0
  6 17  1  0  0  0  0
  7  9  1  0  0  0  0
  7 11  1  0  0  0  0
  7 18  1  0  0  0  0
  8 19  1  0  0  0  0
  8 20  1  0  0  0  0
  8 21  1  0  0  0  0
  9 22  1  0  0  0  0
  9 23  1  0  0  0  0
 10 12  2  0  0  0  0
 10 24  1  0  0  0  0
 11 25  1  0  0  0  0
 11 26  1  0  0  0  0
 11 27  1  0  0  0  0
 12 28  1  0  0  0  0
 12 29  1  0  0  0  0
M  END
> <PUBCHEM_COMPOUND_CID>
6428244

> <PUBCHEM_COMPOUND_CANONICALIZED>
1

> <PUBCHEM_CACTVS_COMPLEXITY>
167

> <PUBCHEM_CACTVS_HBOND_ACCEPTOR>
2

> <PUBCHEM_CACTVS_HBOND_DONOR>
1

> <PUBCHEM_CACTVS_ROTATABLE_BOND>
3

> <PUBCHEM_CACTVS_SUBSKEYS>
AAADceBwMAAAAAAAAAAAAAAAAAAAASAAAAAAAAAAAAAAAAAAAAAAGgAACAAADVSggAICAAAABgCAACBCAAAAAAAgAAAIAAAAAAgAFAIAIAACQAAFgAAAIAGAwHAMAAAAAAAAAAAAAAAAAAAAAAAAAAAAAA==

> <PUBCHEM_IUPAC_OPENEYE_NAME>
2-[(2~{S},5~{S})-5-methyl-5-vinyl-tetrahydrofuran-2-yl]propan-1-ol

> <PUBCHEM_IUPAC_CAS_NAME>
2-[(2~{S},5~{S})-5-ethenyl-5-methyl-2-oxolanyl]-1-propanol

> <PUBCHEM_IUPAC_NAME>
2-[(2~{S},5~{S})-5-ethenyl-5-methyloxolan-2-yl]propan-1-ol

> <PUBCHEM_IUPAC_SYSTEMATIC_NAME>
2-[(2~{S},5~{S})-5-ethenyl-5-methyl-oxolan-2-yl]propan-1-ol

> <PUBCHEM_IUPAC_TRADITIONAL_NAME>
2-[(2~{S},5~{S})-5-methyl-5-vinyl-tetrahydrofuran-2-yl]propan-1-ol

> <PUBCHEM_IUPAC_INCHI>
InChI=1S/C10H18O2/c1-4-10(3)6-5-9(12-10)8(2)7-11/h4,8-9,11H,1,5-7H2,2-3H3/t8?,9-,10+/m0/s1

> <PUBCHEM_IUPAC_INCHIKEY>
VUEGXHXUMOZKKN-CBMCFHRWSA-N

> <PUBCHEM_XLOGP3_AA>
1.6

> <PUBCHEM_EXACT_MASS>
170.131

> <PUBCHEM_MOLECULAR_FORMULA>
C10H18O2

> <PUBCHEM_MOLECULAR_WEIGHT>
170.252

> <PUBCHEM_OPENEYE_CAN_SMILES>
CC(CO)C1CCC(O1)(C)C=C

> <PUBCHEM_OPENEYE_ISO_SMILES>
CC(CO)[C@@H]1CC[C@@](O1)(C)C=C

> <PUBCHEM_CACTVS_TPSA>
29.5

> <PUBCHEM_MONOISOTOPIC_WEIGHT>
170.131

> <PUBCHEM_TOTAL_CHARGE>
0

> <PUBCHEM_HEAVY_ATOM_COUNT>
12

> <PUBCHEM_ATOM_DEF_STEREO_COUNT>
2

> <PUBCHEM_ATOM_UDEF_STEREO_COUNT>
1

> <PUBCHEM_BOND_DEF_STEREO_COUNT>
0

> <PUBCHEM_BOND_UDEF_STEREO_COUNT>
0

> <PUBCHEM_ISOTOPIC_ATOM_COUNT>
0

> <PUBCHEM_COMPONENT_COUNT>
1

> <PUBCHEM_CACTVS_TAUTO_COUNT>
-1

> <PUBCHEM_COORDINATE_TYPE>
1 __ 5 __ 255

> <PUBCHEM_BONDANNOTATIONS>
3  7  6 __ 4  8  6 __ 7  11  3

$$$$
155007
 OpenBabel02201912233D

 28 28  0  0  1  0  0  0  0  0999 V2000
   -0.7745   -0.8761    0.0881 O   0  0  0  0  0  0  0  0  0  0  0  0
    3.4012   -1.5377    0.6804 O   0  0  0  0  0  0  0  0  0  0  0  0
    0.6703   -0.9950    0.1139 C   0  0  3  0  0  0  0  0  0  0  0  0
   -1.1342    0.4991    0.3349 C   0  0  3  0  0  0  0  0  0  0  0  0
    1.2288    0.4293    0.0771 C   0  0  0  0  0  0  0  0  0  0  0  0
    0.0295    1.2844   -0.2607 C   0  0  0  0  0  0  0  0  0  0  0  0
    1.0808   -1.7919    1.3629 C   0  0  3  0  0  0  0  0  0  0  0  0
   -2.4404    0.8037   -0.3975 C   0  0  0  0  0  0  0  0  0  0  0  0
   -1.3717    0.6075    1.8276 C   0  0  0  0  0  0  0  0  0  0  0  0
    0.4426   -3.1804    1.3891 C   0  0  0  0  0  0  0  0  0  0  0  0
    2.5781   -1.9634    1.4861 C   0  0  0  0  0  0  0  0  0  0  0  0
   -0.7499    1.3975    2.7136 C   0  0  0  0  0  0  0  0  0  0  0  0
    0.9625   -1.5350   -0.7949 H   0  0  0  0  0  0  0  0  0  0  0  0
    1.6545    0.7261    1.0415 H   0  0  0  0  0  0  0  0  0  0  0  0
    2.0250    0.5331   -0.6680 H   0  0  0  0  0  0  0  0  0  0  0  0
    0.1150    2.3125    0.1029 H   0  0  0  0  0  0  0  0  0  0  0  0
   -0.0603    1.3331   -1.3542 H   0  0  0  0  0  0  0  0  0  0  0  0
    0.7499   -1.2604    2.2626 H   0  0  0  0  0  0  0  0  0  0  0  0
   -3.2438    0.1306   -0.0746 H   0  0  0  0  0  0  0  0  0  0  0  0
   -2.7637    1.8365   -0.2270 H   0  0  0  0  0  0  0  0  0  0  0  0
   -2.3338    0.6492   -1.4775 H   0  0  0  0  0  0  0  0  0  0  0  0
   -2.1367   -0.0701    2.2093 H   0  0  0  0  0  0  0  0  0  0  0  0
    0.7916   -3.7909    0.5487 H   0  0  0  0  0  0  0  0  0  0  0  0
    0.7073   -3.7105    2.3110 H   0  0  0  0  0  0  0  0  0  0  0  0
   -0.6493   -3.1229    1.3429 H   0  0  0  0  0  0  0  0  0  0  0  0
    2.9167   -2.4855    2.3980 H   0  0  0  0  0  0  0  0  0  0  0  0
   -1.0119    1.3501    3.7659 H   0  0  0  0  0  0  0  0  0  0  0  0
    0.0338    2.0917    2.4321 H   0  0  0  0  0  0  0  0  0  0  0  0
  1  3  1  0  0  0  0
  1  4  1  0  0  0  0
  2 11  2  0  0  0  0
  3  5  1  0  0  0  0
  3  7  1  0  0  0  0
  3 13  1  0  0  0  0
  4  6  1  0  0  0  0
  4  8  1  0  0  0  0
  4  9  1  0  0  0  0
  5  6  1  0  0  0  0
  5 14  1  0  0  0  0
  5 15  1  0  0  0  0
  6 16  1  0  0  0  0
  6 17  1  0  0  0  0
  7 10  1  0  0  0  0
  7 11  1  0  0  0  0
  7 18  1  0  0  0  0
  8 19  1  0  0  0  0
  8 20  1  0  0  0  0
  8 21  1  0  0  0  0
  9 12  2  0  0  0  0
  9 22  1  0  0  0  0
 10 23  1  0  0  0  0
 10 24  1  0  0  0  0
 10 25  1  0  0  0  0
 11 26  1  0  0  0  0
 12 27  1  0  0  0  0
 12 28  1  0  0  0  0
M  END
> <PUBCHEM_COMPOUND_CID>
155007

> <PUBCHEM_COMPOUND_CANONICALIZED>
1

> <PUBCHEM_CACTVS_COMPLEXITY>
188

> <PUBCHEM_CACTVS_HBOND_ACCEPTOR>
2

> <PUBCHEM_CACTVS_HBOND_DONOR>
0

> <PUBCHEM_CACTVS_ROTATABLE_BOND>
3

> <PUBCHEM_CACTVS_SUBSKEYS>
AAADceBwMAAAAAAAAAAAAAAAAAAAASAAAAAAAAAAAAAAAAAAAAAAGgAAAAAADVSggAICAAAABACIAChSgAAAAAAgAAAIAAEAAAgABBYAIAACAAAEoAAAIAGIyFCMAAAAAAAAAAAAAAAAAAAAAAAAAAAAAA==

> <PUBCHEM_IUPAC_OPENEYE_NAME>
2-(5-methyl-5-vinyl-tetrahydrofuran-2-yl)propanal

> <PUBCHEM_IUPAC_CAS_NAME>
2-(5-ethenyl-5-methyl-2-oxolanyl)propanal

> <PUBCHEM_IUPAC_NAME>
2-(5-ethenyl-5-methyloxolan-2-yl)propanal

> <PUBCHEM_IUPAC_SYSTEMATIC_NAME>
2-(5-ethenyl-5-methyl-oxolan-2-yl)propanal

> <PUBCHEM_IUPAC_TRADITIONAL_NAME>
2-(5-methyl-5-vinyl-tetrahydrofuran-2-yl)propionaldehyde

> <PUBCHEM_IUPAC_INCHI>
InChI=1S/C10H16O2/c1-4-10(3)6-5-9(12-10)8(2)7-11/h4,7-9H,1,5-6H2,2-3H3

> <PUBCHEM_IUPAC_INCHIKEY>
YPZQHCLBLRWNMJ-UHFFFAOYSA-N

> <PUBCHEM_XLOGP3_AA>
1.5

> <PUBCHEM_EXACT_MASS>
168.115

> <PUBCHEM_MOLECULAR_FORMULA>
C10H16O2

> <PUBCHEM_MOLECULAR_WEIGHT>
168.236

> <PUBCHEM_OPENEYE_CAN_SMILES>
CC(C=O)C1CCC(O1)(C)C=C

> <PUBCHEM_OPENEYE_ISO_SMILES>
CC(C=O)C1CCC(O1)(C)C=C

> <PUBCHEM_CACTVS_TPSA>
26.3

> <PUBCHEM_MONOISOTOPIC_WEIGHT>
168.115

> <PUBCHEM_TOTAL_CHARGE>
0

> <PUBCHEM_HEAVY_ATOM_COUNT>
12

> <PUBCHEM_ATOM_DEF_STEREO_COUNT>
0

> <PUBCHEM_ATOM_UDEF_STEREO_COUNT>
3

> <PUBCHEM_BOND_DEF_STEREO_COUNT>
0

> <PUBCHEM_BOND_UDEF_STEREO_COUNT>
0

> <PUBCHEM_ISOTOPIC_ATOM_COUNT>
0

> <PUBCHEM_COMPONENT_COUNT>
1

> <PUBCHEM_CACTVS_TAUTO_COUNT>
-1

> <PUBCHEM_COORDINATE_TYPE>
1 __ 5 __ 255

> <PUBCHEM_BONDANNOTATIONS>
3  5  3 __ 4  8  3 __ 7  10  3

$$$$
440917
 OpenBabel02201912233D

 26 26  0  0  1  0  0  0  0  0999 V2000
    0.4099    1.4405   -0.0633 C   0  0  2  0  0  0  0  0  0  0  0  0
    1.4321    0.3302    0.2331 C   0  0  0  0  0  0  0  0  0  0  0  0
   -1.0671    1.0307    0.1248 C   0  0  0  0  0  0  0  0  0  0  0  0
    1.0203   -1.1104   -0.0872 C   0  0  0  0  0  0  0  0  0  0  0  0
   -0.4488   -1.4033    0.0000 C   0  0  0  0  0  0  0  0  0  0  0  0
   -1.3700   -0.4328    0.0926 C   0  0  0  0  0  0  0  0  0  0  0  0
    0.6436    2.1568   -1.3909 C   0  0  0  0  0  0  0  0  0  0  0  0
   -0.8620   -2.8483   -0.0259 C   0  0  0  0  0  0  0  0  0  0  0  0
    0.5530    1.3801   -2.6740 C   0  0  0  0  0  0  0  0  0  0  0  0
    0.9047    3.4757   -1.4250 C   0  0  0  0  0  0  0  0  0  0  0  0
    0.5923    2.2007    0.7126 H   0  0  0  0  0  0  0  0  0  0  0  0
    2.3873    0.5417   -0.2656 H   0  0  0  0  0  0  0  0  0  0  0  0
    1.6590    0.3704    1.3088 H   0  0  0  0  0  0  0  0  0  0  0  0
   -1.4055    1.4042    1.1042 H   0  0  0  0  0  0  0  0  0  0  0  0
   -1.7032    1.5298   -0.6177 H   0  0  0  0  0  0  0  0  0  0  0  0
    1.3715   -1.3820   -1.0906 H   0  0  0  0  0  0  0  0  0  0  0  0
    1.5551   -1.7673    0.6106 H   0  0  0  0  0  0  0  0  0  0  0  0
   -2.4235   -0.6992    0.1519 H   0  0  0  0  0  0  0  0  0  0  0  0
   -1.4801   -3.0890    0.8449 H   0  0  0  0  0  0  0  0  0  0  0  0
   -1.4293   -3.0701   -0.9359 H   0  0  0  0  0  0  0  0  0  0  0  0
    0.0069   -3.5140   -0.0043 H   0  0  0  0  0  0  0  0  0  0  0  0
   -0.3530    1.6589   -3.2210 H   0  0  0  0  0  0  0  0  0  0  0  0
    1.4227    1.5870   -3.3091 H   0  0  0  0  0  0  0  0  0  0  0  0
    0.5238    0.3042   -2.5061 H   0  0  0  0  0  0  0  0  0  0  0  0
    0.9589    4.0730   -0.5199 H   0  0  0  0  0  0  0  0  0  0  0  0
    1.0530    4.0016   -2.3642 H   0  0  0  0  0  0  0  0  0  0  0  0
  1  2  1  0  0  0  0
  1  3  1  0  0  0  0
  1 11  1  1  0  0  0
  1  7  1  0  0  0  0
  2  4  1  0  0  0  0
  2 12  1  0  0  0  0
  2 13  1  0  0  0  0
  3  6  1  0  0  0  0
  3 14  1  0  0  0  0
  3 15  1  0  0  0  0
  4  5  1  0  0  0  0
  4 16  1  0  0  0  0
  4 17  1  0  0  0  0
  5  6  2  0  0  0  0
  5  8  1  0  0  0  0
  6 18  1  0  0  0  0
  7  9  1  0  0  0  0
  7 10  2  0  0  0  0
  8 19  1  0  0  0  0
  8 20  1  0  0  0  0
  8 21  1  0  0  0  0
  9 22  1  0  0  0  0
  9 23  1  0  0  0  0
  9 24  1  0  0  0  0
 10 25  1  0  0  0  0
 10 26  1  0  0  0  0
M  END
> <PUBCHEM_COMPOUND_CID>
440917

> <PUBCHEM_COMPOUND_CANONICALIZED>
1

> <PUBCHEM_CACTVS_COMPLEXITY>
163

> <PUBCHEM_CACTVS_HBOND_ACCEPTOR>
0

> <PUBCHEM_CACTVS_HBOND_DONOR>
0

> <PUBCHEM_CACTVS_ROTATABLE_BOND>
1

> <PUBCHEM_CACTVS_SUBSKEYS>
AAADceBwAAAAAAAAAAAAAAAAAAAAAAAAAAAgAAAAAAAAAAAAAAAAGAAAAAAADQCAAAACAAAAAACAAiBCAAAAAAAgAAAACAAAAAgAAAIAAQAAAAAAgAAIAAMAgAAOAAAAAAAAAAAAAAAAAAAAAAAAAAAAAA==

> <PUBCHEM_IUPAC_OPENEYE_NAME>
(4~{R})-4-isopropenyl-1-methyl-cyclohexene

> <PUBCHEM_IUPAC_CAS_NAME>
(4~{R})-1-methyl-4-(1-methylethenyl)cyclohexene

> <PUBCHEM_IUPAC_NAME>
(4~{R})-1-methyl-4-prop-1-en-2-ylcyclohexene

> <PUBCHEM_IUPAC_SYSTEMATIC_NAME>
(4~{R})-1-methyl-4-prop-1-en-2-yl-cyclohexene

> <PUBCHEM_IUPAC_TRADITIONAL_NAME>
(4~{R})-4-isopropenyl-1-methyl-cyclohexene

> <PUBCHEM_IUPAC_INCHI>
InChI=1S/C10H16/c1-8(2)10-6-4-9(3)5-7-10/h4,10H,1,5-7H2,2-3H3/t10-/m0/s1

> <PUBCHEM_IUPAC_INCHIKEY>
XMGQYMWWDOXHJM-JTQLQIEISA-N

> <PUBCHEM_XLOGP3_AA>
3.4

> <PUBCHEM_EXACT_MASS>
136.125

> <PUBCHEM_MOLECULAR_FORMULA>
C10H16

> <PUBCHEM_MOLECULAR_WEIGHT>
136.238

> <PUBCHEM_OPENEYE_CAN_SMILES>
CC1=CCC(CC1)C(=C)C

> <PUBCHEM_OPENEYE_ISO_SMILES>
CC1=CC[C@@H](CC1)C(=C)C

> <PUBCHEM_CACTVS_TPSA>
0

> <PUBCHEM_MONOISOTOPIC_WEIGHT>
136.125

> <PUBCHEM_TOTAL_CHARGE>
0

> <PUBCHEM_HEAVY_ATOM_COUNT>
10

> <PUBCHEM_ATOM_DEF_STEREO_COUNT>
1

> <PUBCHEM_ATOM_UDEF_STEREO_COUNT>
0

> <PUBCHEM_BOND_DEF_STEREO_COUNT>
0

> <PUBCHEM_BOND_UDEF_STEREO_COUNT>
0

> <PUBCHEM_ISOTOPIC_ATOM_COUNT>
0

> <PUBCHEM_COMPONENT_COUNT>
1

> <PUBCHEM_CACTVS_TAUTO_COUNT>
1

> <PUBCHEM_COORDINATE_TYPE>
1 __ 5 __ 255

> <PUBCHEM_BONDANNOTATIONS>
1  7  5

$$$$
232703
 OpenBabel02201912233D

 28 30  0  0  1  0  0  0  0  0999 V2000
   -1.2316    1.1872    1.1574 O   0  0  0  0  0  0  0  0  0  0  0  0
   -0.0295   -0.3009   -2.5872 O   0  0  0  0  0  0  0  0  0  0  0  0
   -0.2365    1.4080    0.1457 C   0  0  3  0  0  0  0  0  0  0  0  0
   -1.1645    0.2246    0.1023 C   0  0  3  0  0  0  0  0  0  0  0  0
    0.8053   -1.2186   -0.4164 C   0  0  3  0  0  0  0  0  0  0  0  0
    0.6441   -1.3877   -1.9331 C   0  0  3  0  0  0  0  0  0  0  0  0
   -0.5145   -1.0920    0.3820 C   0  0  0  0  0  0  0  0  0  0  0  0
    1.1602    1.1549    0.6209 C   0  0  0  0  0  0  0  0  0  0  0  0
    1.7848   -0.0534   -0.0874 C   0  0  0  0  0  0  0  0  0  0  0  0
   -0.7025   -1.5637   -2.6205 C   0  0  0  0  0  0  0  0  0  0  0  0
   -0.4825    2.5325   -0.8017 C   0  0  0  0  0  0  0  0  0  0  0  0
    1.8541   -1.8729   -2.6888 C   0  0  0  0  0  0  0  0  0  0  0  0
   -1.9723    0.1910   -0.6133 H   0  0  0  0  0  0  0  0  0  0  0  0
    1.2804   -2.1469   -0.0722 H   0  0  0  0  0  0  0  0  0  0  0  0
   -1.1982   -1.9144    0.1444 H   0  0  0  0  0  0  0  0  0  0  0  0
   -0.2966   -1.1811    1.4549 H   0  0  0  0  0  0  0  0  0  0  0  0
    1.7942    2.0375    0.4745 H   0  0  0  0  0  0  0  0  0  0  0  0
    1.1566    0.9672    1.7032 H   0  0  0  0  0  0  0  0  0  0  0  0
    2.2761    0.3089   -0.9966 H   0  0  0  0  0  0  0  0  0  0  0  0
    2.5912   -0.4384    0.5516 H   0  0  0  0  0  0  0  0  0  0  0  0
   -1.6094   -1.6746   -2.0435 H   0  0  0  0  0  0  0  0  0  0  0  0
   -0.7449   -2.0743   -3.5757 H   0  0  0  0  0  0  0  0  0  0  0  0
    0.0817    2.3724   -1.7273 H   0  0  0  0  0  0  0  0  0  0  0  0
   -1.5409    2.6200   -1.0693 H   0  0  0  0  0  0  0  0  0  0  0  0
   -0.1595    3.4834   -0.3685 H   0  0  0  0  0  0  0  0  0  0  0  0
    2.7472   -1.2918   -2.4425 H   0  0  0  0  0  0  0  0  0  0  0  0
    2.0506   -2.9222   -2.4484 H   0  0  0  0  0  0  0  0  0  0  0  0
    1.7088   -1.7966   -3.7726 H   0  0  0  0  0  0  0  0  0  0  0  0
  1  3  1  0  0  0  0
  1  4  1  0  0  0  0
  2  6  1  0  0  0  0
  2 10  1  0  0  0  0
  3  4  1  0  0  0  0
  3  8  1  0  0  0  0
  3 11  1  0  0  0  0
  4  7  1  0  0  0  0
  4 13  1  0  0  0  0
  5  6  1  0  0  0  0
  5  7  1  0  0  0  0
  5  9  1  0  0  0  0
  5 14  1  0  0  0  0
  6 10  1  0  0  0  0
  6 12  1  0  0  0  0
  7 15  1  0  0  0  0
  7 16  1  0  0  0  0
  8  9  1  0  0  0  0
  8 17  1  0  0  0  0
  8 18  1  0  0  0  0
  9 19  1  0  0  0  0
  9 20  1  0  0  0  0
 10 21  1  0  0  0  0
 10 22  1  0  0  0  0
 11 23  1  0  0  0  0
 11 24  1  0  0  0  0
 11 25  1  0  0  0  0
 12 26  1  0  0  0  0
 12 27  1  0  0  0  0
 12 28  1  0  0  0  0
M  END
> <PUBCHEM_COMPOUND_CID>
232703

> <PUBCHEM_COMPOUND_CANONICALIZED>
1

> <PUBCHEM_CACTVS_COMPLEXITY>
228

> <PUBCHEM_CACTVS_HBOND_ACCEPTOR>
2

> <PUBCHEM_CACTVS_HBOND_DONOR>
0

> <PUBCHEM_CACTVS_ROTATABLE_BOND>
1

> <PUBCHEM_CACTVS_SUBSKEYS>
AAADceBwMAAAAAAAAAAAAAAAEiQAAAAAAAAwAAAABIAAAAAAAAAAGgAAAAAADVSggAICAAAABAAAAAAAAAAAAAAAAAAAAAAAAAAAAAIAAAACAAAEAAAAAAHA4PwOgAAAAAAAAADAAAIAABAAAAAAAAAAAA==

> <PUBCHEM_IUPAC_OPENEYE_NAME>
1-methyl-4-(2-methyloxiran-2-yl)-7-oxabicyclo[4.1.0]heptane

> <PUBCHEM_IUPAC_CAS_NAME>
1-methyl-4-(2-methyl-2-oxiranyl)-7-oxabicyclo[4.1.0]heptane

> <PUBCHEM_IUPAC_NAME>
1-methyl-4-(2-methyloxiran-2-yl)-7-oxabicyclo[4.1.0]heptane

> <PUBCHEM_IUPAC_SYSTEMATIC_NAME>
1-methyl-4-(2-methyloxiran-2-yl)-7-oxabicyclo[4.1.0]heptane

> <PUBCHEM_IUPAC_TRADITIONAL_NAME>
1-methyl-4-(2-methyloxiran-2-yl)-7-oxabicyclo[4.1.0]heptane

> <PUBCHEM_IUPAC_INCHI>
InChI=1S/C10H16O2/c1-9-4-3-7(5-8(9)12-9)10(2)6-11-10/h7-8H,3-6H2,1-2H3

> <PUBCHEM_IUPAC_INCHIKEY>
RBHIUNHSNSQJNG-UHFFFAOYSA-N

> <PUBCHEM_XLOGP3_AA>
1.1

> <PUBCHEM_EXACT_MASS>
168.115

> <PUBCHEM_MOLECULAR_FORMULA>
C10H16O2

> <PUBCHEM_MOLECULAR_WEIGHT>
168.236

> <PUBCHEM_OPENEYE_CAN_SMILES>
CC12CCC(CC1O2)C3(CO3)C

> <PUBCHEM_OPENEYE_ISO_SMILES>
CC12CCC(CC1O2)C3(CO3)C

> <PUBCHEM_CACTVS_TPSA>
25.1

> <PUBCHEM_MONOISOTOPIC_WEIGHT>
168.115

> <PUBCHEM_TOTAL_CHARGE>
0

> <PUBCHEM_HEAVY_ATOM_COUNT>
12

> <PUBCHEM_ATOM_DEF_STEREO_COUNT>
0

> <PUBCHEM_ATOM_UDEF_STEREO_COUNT>
4

> <PUBCHEM_BOND_DEF_STEREO_COUNT>
0

> <PUBCHEM_BOND_UDEF_STEREO_COUNT>
0

> <PUBCHEM_ISOTOPIC_ATOM_COUNT>
0

> <PUBCHEM_COMPONENT_COUNT>
1

> <PUBCHEM_CACTVS_TAUTO_COUNT>
-1

> <PUBCHEM_COORDINATE_TYPE>
1 __ 5 __ 255

> <PUBCHEM_BONDANNOTATIONS>
3  11  3 __ 4  7  3 __ 6  5  3 __ 5  9  3

$$$$
537453
 OpenBabel02201912233D

 31 32  0  0  1  0  0  0  0  0999 V2000
    0.1482   -1.4963   -2.6707 O   0  0  0  0  0  0  0  0  0  0  0  0
    2.0336    1.5233    1.7545 O   0  0  0  0  0  0  0  0  0  0  0  0
    4.6789    0.4231    1.0898 O   0  0  0  0  0  0  0  0  0  0  0  0
    1.3481   -0.7923   -2.3058 C   0  0  3  0  0  0  0  0  0  0  0  0
    0.0970   -0.0685   -2.7923 C   0  0  0  0  0  0  0  0  0  0  0  0
    1.7259   -0.9851   -0.8654 C   0  0  0  0  0  0  0  0  0  0  0  0
    3.4748   -0.3487    0.9528 C   0  0  3  0  0  0  0  0  0  0  0  0
    2.9922   -0.1997   -0.5086 C   0  0  0  0  0  0  0  0  0  0  0  0
    2.4413    0.1562    1.9381 C   0  0  3  0  0  0  0  0  0  0  0  0
    2.7438    1.2240    2.9639 C   0  0  0  0  0  0  0  0  0  0  0  0
    0.0511    0.4085   -4.2115 C   0  0  0  0  0  0  0  0  0  0  0  0
   -0.8500    0.5878   -1.8361 C   0  0  0  0  0  0  0  0  0  0  0  0
    3.8527   -1.7941    1.3009 C   0  0  0  0  0  0  0  0  0  0  0  0
    2.1909   -0.8920   -2.9792 H   0  0  0  0  0  0  0  0  0  0  0  0
    0.9053   -0.6966   -0.2022 H   0  0  0  0  0  0  0  0  0  0  0  0
    1.8996   -2.0551   -0.7117 H   0  0  0  0  0  0  0  0  0  0  0  0
    3.8056   -0.5004   -1.1837 H   0  0  0  0  0  0  0  0  0  0  0  0
    2.8293    0.8641   -0.7294 H   0  0  0  0  0  0  0  0  0  0  0  0
    1.6616   -0.5597    2.1543 H   0  0  0  0  0  0  0  0  0  0  0  0
    3.7513    1.6063    3.0546 H   0  0  0  0  0  0  0  0  0  0  0  0
    2.1802    1.2223    3.8870 H   0  0  0  0  0  0  0  0  0  0  0  0
   -0.9736    0.3740   -4.5978 H   0  0  0  0  0  0  0  0  0  0  0  0
    0.4108    1.4398   -4.2766 H   0  0  0  0  0  0  0  0  0  0  0  0
    0.6723   -0.2087   -4.8697 H   0  0  0  0  0  0  0  0  0  0  0  0
   -1.1481   -0.0828   -1.0235 H   0  0  0  0  0  0  0  0  0  0  0  0
   -0.3884    1.4784   -1.3987 H   0  0  0  0  0  0  0  0  0  0  0  0
   -1.7685    0.8984   -2.3472 H   0  0  0  0  0  0  0  0  0  0  0  0
    3.0098   -2.4837    1.1972 H   0  0  0  0  0  0  0  0  0  0  0  0
    4.6769   -2.1487    0.6724 H   0  0  0  0  0  0  0  0  0  0  0  0
    4.2014   -1.8593    2.3384 H   0  0  0  0  0  0  0  0  0  0  0  0
    5.3152    0.1071    0.4267 H   0  0  0  0  0  0  0  0  0  0  0  0
  1  4  1  0  0  0  0
  1  5  1  0  0  0  0
  2  9  1  0  0  0  0
  2 10  1  0  0  0  0
  3  7  1  0  0  0  0
  3 31  1  0  0  0  0
  4  5  1  0  0  0  0
  4  6  1  0  0  0  0
  4 14  1  0  0  0  0
  5 11  1  0  0  0  0
  5 12  1  0  0  0  0
  6  8  1  0  0  0  0
  6 15  1  0  0  0  0
  6 16  1  0  0  0  0
  7  8  1  0  0  0  0
  7  9  1  0  0  0  0
  7 13  1  0  0  0  0
  8 17  1  0  0  0  0
  8 18  1  0  0  0  0
  9 10  1  0  0  0  0
  9 19  1  0  0  0  0
 10 20  1  0  0  0  0
 10 21  1  0  0  0  0
 11 22  1  0  0  0  0
 11 23  1  0  0  0  0
 11 24  1  0  0  0  0
 12 25  1  0  0  0  0
 12 26  1  0  0  0  0
 12 27  1  0  0  0  0
 13 28  1  0  0  0  0
 13 29  1  0  0  0  0
 13 30  1  0  0  0  0
M  END
> <PUBCHEM_COMPOUND_CID>
537453

> <PUBCHEM_COMPOUND_CANONICALIZED>
1

> <PUBCHEM_CACTVS_COMPLEXITY>
214

> <PUBCHEM_CACTVS_HBOND_ACCEPTOR>
3

> <PUBCHEM_CACTVS_HBOND_DONOR>
1

> <PUBCHEM_CACTVS_ROTATABLE_BOND>
4

> <PUBCHEM_CACTVS_SUBSKEYS>
AAADceBwMAAAAAAAAAAAAAAAEiQAAAAAAAAAAAAAAAAAAAAAAAAAGgAACAAADFSggAICAAAABgAAAAAAAAAAAAAAAAAAAAAAAAABAAIAAAACQAAFAAADAAHA4PwOAAAAAAAAAAAAAAAAAAAAAAAAAAAAAA==

> <PUBCHEM_IUPAC_OPENEYE_NAME>
4-(3,3-dimethyloxiran-2-yl)-2-(oxiran-2-yl)butan-2-ol

> <PUBCHEM_IUPAC_CAS_NAME>
4-(3,3-dimethyl-2-oxiranyl)-2-(2-oxiranyl)-2-butanol

> <PUBCHEM_IUPAC_NAME>
4-(3,3-dimethyloxiran-2-yl)-2-(oxiran-2-yl)butan-2-ol

> <PUBCHEM_IUPAC_SYSTEMATIC_NAME>
4-(3,3-dimethyloxiran-2-yl)-2-(oxiran-2-yl)butan-2-ol

> <PUBCHEM_IUPAC_TRADITIONAL_NAME>
4-(3,3-dimethyloxiran-2-yl)-2-(oxiran-2-yl)butan-2-ol

> <PUBCHEM_IUPAC_INCHI>
InChI=1S/C10H18O3/c1-9(2)7(13-9)4-5-10(3,11)8-6-12-8/h7-8,11H,4-6H2,1-3H3

> <PUBCHEM_IUPAC_INCHIKEY>
WNUGGHMAJKRDQE-UHFFFAOYSA-N

> <PUBCHEM_XLOGP3_AA>
0.5

> <PUBCHEM_EXACT_MASS>
186.126

> <PUBCHEM_MOLECULAR_FORMULA>
C10H18O3

> <PUBCHEM_MOLECULAR_WEIGHT>
186.251

> <PUBCHEM_OPENEYE_CAN_SMILES>
CC1(C(O1)CCC(C)(C2CO2)O)C

> <PUBCHEM_OPENEYE_ISO_SMILES>
CC1(C(O1)CCC(C)(C2CO2)O)C

> <PUBCHEM_CACTVS_TPSA>
45.3

> <PUBCHEM_MONOISOTOPIC_WEIGHT>
186.126

> <PUBCHEM_TOTAL_CHARGE>
0

> <PUBCHEM_HEAVY_ATOM_COUNT>
13

> <PUBCHEM_ATOM_DEF_STEREO_COUNT>
0

> <PUBCHEM_ATOM_UDEF_STEREO_COUNT>
3

> <PUBCHEM_BOND_DEF_STEREO_COUNT>
0

> <PUBCHEM_BOND_UDEF_STEREO_COUNT>
0

> <PUBCHEM_ISOTOPIC_ATOM_COUNT>
0

> <PUBCHEM_COMPONENT_COUNT>
1

> <PUBCHEM_CACTVS_TAUTO_COUNT>
-1

> <PUBCHEM_COORDINATE_TYPE>
1 __ 5 __ 255

> <PUBCHEM_BONDANNOTATIONS>
7  3  3 __ 4  6  3 __ 9  10  3

$$$$
6549
 OpenBabel02201912233D

 29 28  0  0  1  0  0  0  0  0999 V2000
    1.0192   -2.0193    1.1470 O   0  0  0  0  0  0  0  0  0  0  0  0
    0.5296   -1.3136    0.0057 C   0  0  3  0  0  0  0  0  0  0  0  0
    1.0955   -1.9702   -1.2716 C   0  0  0  0  0  0  0  0  0  0  0  0
    2.6299   -1.9600   -1.3610 C   0  0  0  0  0  0  0  0  0  0  0  0
   -1.0024   -1.4136    0.0152 C   0  0  0  0  0  0  0  0  0  0  0  0
    0.9245    0.1424    0.1055 C   0  0  0  0  0  0  0  0  0  0  0  0
    3.0831   -2.6059   -2.6468 C   0  0  0  0  0  0  0  0  0  0  0  0
    3.8451   -2.0471   -3.6072 C   0  0  0  0  0  0  0  0  0  0  0  0
    4.1822   -2.7999   -4.8654 C   0  0  0  0  0  0  0  0  0  0  0  0
    4.4097   -0.6567   -3.5144 C   0  0  0  0  0  0  0  0  0  0  0  0
    1.6231    0.7110    1.1003 C   0  0  0  0  0  0  0  0  0  0  0  0
    0.7594   -3.0163   -1.3073 H   0  0  0  0  0  0  0  0  0  0  0  0
    0.6775   -1.4741   -2.1585 H   0  0  0  0  0  0  0  0  0  0  0  0
    3.0055   -0.9352   -1.2858 H   0  0  0  0  0  0  0  0  0  0  0  0
    3.0588   -2.5204   -0.5224 H   0  0  0  0  0  0  0  0  0  0  0  0
   -1.4312   -0.8307    0.8396 H   0  0  0  0  0  0  0  0  0  0  0  0
   -1.4400   -1.0477   -0.9202 H   0  0  0  0  0  0  0  0  0  0  0  0
   -1.3305   -2.4483    0.1682 H   0  0  0  0  0  0  0  0  0  0  0  0
    0.6027    0.7798   -0.7161 H   0  0  0  0  0  0  0  0  0  0  0  0
    2.7383   -3.6301   -2.7870 H   0  0  0  0  0  0  0  0  0  0  0  0
    0.6839   -2.9297    1.0990 H   0  0  0  0  0  0  0  0  0  0  0  0
    3.6079    0.0869   -3.4705 H   0  0  0  0  0  0  0  0  0  0  0  0
    5.0483   -0.5551   -2.6308 H   0  0  0  0  0  0  0  0  0  0  0  0
    5.0280   -0.4204   -4.3875 H   0  0  0  0  0  0  0  0  0  0  0  0
    3.8525   -2.2337   -5.7432 H   0  0  0  0  0  0  0  0  0  0  0  0
    5.2628   -2.9583   -4.9373 H   0  0  0  0  0  0  0  0  0  0  0  0
    3.6951   -3.7799   -4.9050 H   0  0  0  0  0  0  0  0  0  0  0  0
    1.8597    1.7685    1.0833 H   0  0  0  0  0  0  0  0  0  0  0  0
    1.9740    0.1297    1.9485 H   0  0  0  0  0  0  0  0  0  0  0  0
  1  2  1  0  0  0  0
  1 21  1  0  0  0  0
  2  3  1  0  0  0  0
  2  5  1  0  0  0  0
  2  6  1  0  0  0  0
  3  4  1  0  0  0  0
  3 12  1  0  0  0  0
  3 13  1  0  0  0  0
  4  7  1  0  0  0  0
  4 14  1  0  0  0  0
  4 15  1  0  0  0  0
  5 16  1  0  0  0  0
  5 17  1  0  0  0  0
  5 18  1  0  0  0  0
  6 11  2  0  0  0  0
  6 19  1  0  0  0  0
  7  8  2  0  0  0  0
  7 20  1  0  0  0  0
  8  9  1  0  0  0  0
  8 10  1  0  0  0  0
  9 25  1  0  0  0  0
  9 26  1  0  0  0  0
  9 27  1  0  0  0  0
 10 22  1  0  0  0  0
 10 23  1  0  0  0  0
 10 24  1  0  0  0  0
 11 28  1  0  0  0  0
 11 29  1  0  0  0  0
M  END
> <PUBCHEM_COMPOUND_CID>
6549

> <PUBCHEM_COMPOUND_CANONICALIZED>
1

> <PUBCHEM_CACTVS_COMPLEXITY>
154

> <PUBCHEM_CACTVS_HBOND_ACCEPTOR>
1

> <PUBCHEM_CACTVS_HBOND_DONOR>
1

> <PUBCHEM_CACTVS_ROTATABLE_BOND>
4

> <PUBCHEM_CACTVS_SUBSKEYS>
AAADceBwIAAAAAAAAAAAAAAAAAAAAAAAAAAAAAAAAAAAAAAAAAAAGgAACAAADESAgAACAAAAAgCAAiBCAAAAAAAgAAAICAAAAAgABAIAAQAAQAAEgAAIEAIAAAAMAAAAAAAAAAAAAAAAAAAAAAAAAAAAAA==

> <PUBCHEM_IUPAC_OPENEYE_NAME>
3,7-dimethylocta-1,6-dien-3-ol

> <PUBCHEM_IUPAC_CAS_NAME>
3,7-dimethyl-3-octa-1,6-dienol

> <PUBCHEM_IUPAC_NAME>
3,7-dimethylocta-1,6-dien-3-ol

> <PUBCHEM_IUPAC_SYSTEMATIC_NAME>
3,7-dimethylocta-1,6-dien-3-ol

> <PUBCHEM_IUPAC_TRADITIONAL_NAME>
3,7-dimethylocta-1,6-dien-3-ol

> <PUBCHEM_IUPAC_INCHI>
InChI=1S/C10H18O/c1-5-10(4,11)8-6-7-9(2)3/h5,7,11H,1,6,8H2,2-4H3

> <PUBCHEM_IUPAC_INCHIKEY>
CDOSHBSSFJOMGT-UHFFFAOYSA-N

> <PUBCHEM_XLOGP3_AA>
2.7

> <PUBCHEM_EXACT_MASS>
154.136

> <PUBCHEM_MOLECULAR_FORMULA>
C10H18O

> <PUBCHEM_MOLECULAR_WEIGHT>
154.253

> <PUBCHEM_OPENEYE_CAN_SMILES>
CC(=CCCC(C)(C=C)O)C

> <PUBCHEM_OPENEYE_ISO_SMILES>
CC(=CCCC(C)(C=C)O)C

> <PUBCHEM_CACTVS_TPSA>
20.2

> <PUBCHEM_MONOISOTOPIC_WEIGHT>
154.136

> <PUBCHEM_TOTAL_CHARGE>
0

> <PUBCHEM_HEAVY_ATOM_COUNT>
11

> <PUBCHEM_ATOM_DEF_STEREO_COUNT>
0

> <PUBCHEM_ATOM_UDEF_STEREO_COUNT>
1

> <PUBCHEM_BOND_DEF_STEREO_COUNT>
0

> <PUBCHEM_BOND_UDEF_STEREO_COUNT>
0

> <PUBCHEM_ISOTOPIC_ATOM_COUNT>
0

> <PUBCHEM_COMPONENT_COUNT>
1

> <PUBCHEM_CACTVS_TAUTO_COUNT>
-1

> <PUBCHEM_COORDINATE_TYPE>
1 __ 5 __ 255

> <PUBCHEM_BONDANNOTATIONS>
2  1  3

$$$$
441245
 OpenBabel02201912233D

 27 28  0  0  1  0  0  0  0  0999 V2000
   -1.5387    0.8345    0.6508 O   0  0  0  0  0  0  0  0  0  0  0  0
   -0.3819    1.2285   -0.1032 C   0  0  3  0  0  0  0  0  0  0  0  0
   -1.0522   -0.1084   -0.3039 C   0  0  3  0  0  0  0  0  0  0  0  0
    0.8831    1.2368    0.7049 C   0  0  0  0  0  0  0  0  0  0  0  0
   -0.2412   -1.2804    0.1692 C   0  0  0  0  0  0  0  0  0  0  0  0
    1.1915   -1.0972   -0.3950 C   0  0  1  0  0  0  0  0  0  0  0  0
    1.8625    0.1544    0.2358 C   0  0  0  0  0  0  0  0  0  0  0  0
   -0.5676    2.2542   -1.1660 C   0  0  0  0  0  0  0  0  0  0  0  0
    2.1235   -2.3042   -0.3820 C   0  0  0  0  0  0  0  0  0  0  0  0
    3.4800   -2.0757   -1.0046 C   0  0  0  0  0  0  0  0  0  0  0  0
    1.7975   -3.5216    0.0814 C   0  0  0  0  0  0  0  0  0  0  0  0
   -1.6225   -0.2964   -1.2013 H   0  0  0  0  0  0  0  0  0  0  0  0
    1.3686    2.2195    0.6767 H   0  0  0  0  0  0  0  0  0  0  0  0
    0.6422    1.0561    1.7613 H   0  0  0  0  0  0  0  0  0  0  0  0
   -0.7074   -2.1961   -0.2098 H   0  0  0  0  0  0  0  0  0  0  0  0
   -0.2288   -1.3455    1.2644 H   0  0  0  0  0  0  0  0  0  0  0  0
    1.0561   -0.8661   -1.4640 H   0  0  0  0  0  0  0  0  0  0  0  0
    2.5324    0.5979   -0.5124 H   0  0  0  0  0  0  0  0  0  0  0  0
    2.4991   -0.1257    1.0845 H   0  0  0  0  0  0  0  0  0  0  0  0
    0.0152    1.9746   -2.0520 H   0  0  0  0  0  0  0  0  0  0  0  0
   -1.6156    2.3457   -1.4687 H   0  0  0  0  0  0  0  0  0  0  0  0
   -0.2217    3.2382   -0.8343 H   0  0  0  0  0  0  0  0  0  0  0  0
    4.1433   -1.5755   -0.2910 H   0  0  0  0  0  0  0  0  0  0  0  0
    3.9542   -3.0119   -1.3141 H   0  0  0  0  0  0  0  0  0  0  0  0
    3.3960   -1.4460   -1.8974 H   0  0  0  0  0  0  0  0  0  0  0  0
    0.8310   -3.7476    0.5156 H   0  0  0  0  0  0  0  0  0  0  0  0
    2.5034   -4.3478    0.0297 H   0  0  0  0  0  0  0  0  0  0  0  0
  1  2  1  0  0  0  0
  1  3  1  0  0  0  0
  2  3  1  0  0  0  0
  2  4  1  0  0  0  0
  2  8  1  0  0  0  0
  3  5  1  0  0  0  0
  3 12  1  0  0  0  0
  4  7  1  0  0  0  0
  4 13  1  0  0  0  0
  4 14  1  0  0  0  0
  5  6  1  0  0  0  0
  5 15  1  0  0  0  0
  5 16  1  0  0  0  0
  6  7  1  0  0  0  0
  6 17  1  6  0  0  0
  6  9  1  0  0  0  0
  7 18  1  0  0  0  0
  7 19  1  0  0  0  0
  8 20  1  0  0  0  0
  8 21  1  0  0  0  0
  8 22  1  0  0  0  0
  9 10  1  0  0  0  0
  9 11  2  0  0  0  0
 10 23  1  0  0  0  0
 10 24  1  0  0  0  0
 10 25  1  0  0  0  0
 11 26  1  0  0  0  0
 11 27  1  0  0  0  0
M  END
> <PUBCHEM_COMPOUND_CID>
441245

> <PUBCHEM_COMPOUND_CANONICALIZED>
1

> <PUBCHEM_CACTVS_COMPLEXITY>
197

> <PUBCHEM_CACTVS_HBOND_ACCEPTOR>
1

> <PUBCHEM_CACTVS_HBOND_DONOR>
0

> <PUBCHEM_CACTVS_ROTATABLE_BOND>
1

> <PUBCHEM_CACTVS_SUBSKEYS>
AAADceBwIAAAAAAAAAAAAAAAEgAAAAAAAAAwAAAABIAAAAAAAAAAGgAAAAAADVSggAICAAAABACAAgBCAAAAAAAgAAAAAAAAAAgAAAIAAQACAAAEgAAAAAGAwPAOAAAAAAAAAADAAAIAABAAAAAAAAAAAA==

> <PUBCHEM_IUPAC_OPENEYE_NAME>
(4~{R})-4-isopropenyl-1-methyl-7-oxabicyclo[4.1.0]heptane

> <PUBCHEM_IUPAC_CAS_NAME>
(4~{R})-1-methyl-4-(1-methylethenyl)-7-oxabicyclo[4.1.0]heptane

> <PUBCHEM_IUPAC_NAME>
(4~{R})-1-methyl-4-prop-1-en-2-yl-7-oxabicyclo[4.1.0]heptane

> <PUBCHEM_IUPAC_SYSTEMATIC_NAME>
(4~{R})-1-methyl-4-prop-1-en-2-yl-7-oxabicyclo[4.1.0]heptane

> <PUBCHEM_IUPAC_TRADITIONAL_NAME>
(4~{R})-4-isopropenyl-1-methyl-7-oxabicyclo[4.1.0]heptane

> <PUBCHEM_IUPAC_INCHI>
InChI=1S/C10H16O/c1-7(2)8-4-5-10(3)9(6-8)11-10/h8-9H,1,4-6H2,2-3H3/t8-,9?,10?/m1/s1

> <PUBCHEM_IUPAC_INCHIKEY>
CCEFMUBVSUDRLG-XNWIYYODSA-N

> <PUBCHEM_XLOGP3_AA>
2.5

> <PUBCHEM_EXACT_MASS>
152.12

> <PUBCHEM_MOLECULAR_FORMULA>
C10H16O

> <PUBCHEM_MOLECULAR_WEIGHT>
152.237

> <PUBCHEM_OPENEYE_CAN_SMILES>
CC(=C)C1CCC2(C(C1)O2)C

> <PUBCHEM_OPENEYE_ISO_SMILES>
CC(=C)[C@@H]1CCC2(C(C1)O2)C

> <PUBCHEM_CACTVS_TPSA>
12.5

> <PUBCHEM_MONOISOTOPIC_WEIGHT>
152.12

> <PUBCHEM_TOTAL_CHARGE>
0

> <PUBCHEM_HEAVY_ATOM_COUNT>
11

> <PUBCHEM_ATOM_DEF_STEREO_COUNT>
1

> <PUBCHEM_ATOM_UDEF_STEREO_COUNT>
2

> <PUBCHEM_BOND_DEF_STEREO_COUNT>
0

> <PUBCHEM_BOND_UDEF_STEREO_COUNT>
0

> <PUBCHEM_ISOTOPIC_ATOM_COUNT>
0

> <PUBCHEM_COMPONENT_COUNT>
1

> <PUBCHEM_CACTVS_TAUTO_COUNT>
-1

> <PUBCHEM_COORDINATE_TYPE>
1 __ 5 __ 255

> <PUBCHEM_BONDANNOTATIONS>
2  8  3 __ 3  5  3 __ 6  9  6

$$$$
527424
 OpenBabel02201912233D

 24 24  0  0  1  0  0  0  0  0999 V2000
    0.3044   -1.3899    0.1204 C   0  0  3  0  0  0  0  0  0  0  0  0
   -1.1551   -0.9157   -0.1279 C   0  0  0  0  0  0  0  0  0  0  0  0
    1.3368   -0.3010   -0.0588 C   0  0  0  0  0  0  0  0  0  0  0  0
    0.4737   -2.0619    1.4797 C   0  0  0  0  0  0  0  0  0  0  0  0
   -1.3657    0.5757   -0.0861 C   0  0  0  0  0  0  0  0  0  0  0  0
   -0.3523    1.4592   -0.0860 C   0  0  0  0  0  0  0  0  0  0  0  0
    1.0201    0.9982   -0.1567 C   0  0  0  0  0  0  0  0  0  0  0  0
    0.1789   -1.2600    2.7198 C   0  0  0  0  0  0  0  0  0  0  0  0
   -0.5668    2.9424   -0.0300 C   0  0  0  0  0  0  0  0  0  0  0  0
    0.8780   -3.3397    1.5920 C   0  0  0  0  0  0  0  0  0  0  0  0
    0.5142   -2.1395   -0.6563 H   0  0  0  0  0  0  0  0  0  0  0  0
   -1.4734   -1.2604   -1.1210 H   0  0  0  0  0  0  0  0  0  0  0  0
   -1.8409   -1.3889    0.5862 H   0  0  0  0  0  0  0  0  0  0  0  0
    2.3787   -0.6044   -0.1040 H   0  0  0  0  0  0  0  0  0  0  0  0
   -2.3952    0.9213   -0.0556 H   0  0  0  0  0  0  0  0  0  0  0  0
    1.8049    1.7393   -0.2808 H   0  0  0  0  0  0  0  0  0  0  0  0
   -0.6038   -1.7456    3.3122 H   0  0  0  0  0  0  0  0  0  0  0  0
    1.0799   -1.1618    3.3346 H   0  0  0  0  0  0  0  0  0  0  0  0
   -0.1699   -0.2501    2.4905 H   0  0  0  0  0  0  0  0  0  0  0  0
   -0.0991    3.3629    0.8669 H   0  0  0  0  0  0  0  0  0  0  0  0
   -0.1327    3.4296   -0.9095 H   0  0  0  0  0  0  0  0  0  0  0  0
   -1.6309    3.2000    0.0002 H   0  0  0  0  0  0  0  0  0  0  0  0
    1.1045   -3.9474    0.7213 H   0  0  0  0  0  0  0  0  0  0  0  0
    0.9994   -3.8087    2.5644 H   0  0  0  0  0  0  0  0  0  0  0  0
  1  2  1  0  0  0  0
  1  3  1  0  0  0  0
  1  4  1  0  0  0  0
  1 11  1  0  0  0  0
  2  5  1  0  0  0  0
  2 12  1  0  0  0  0
  2 13  1  0  0  0  0
  3  7  2  0  0  0  0
  3 14  1  0  0  0  0
  4  8  1  0  0  0  0
  4 10  2  0  0  0  0
  5  6  2  0  0  0  0
  5 15  1  0  0  0  0
  6  7  1  0  0  0  0
  6  9  1  0  0  0  0
  7 16  1  0  0  0  0
  8 17  1  0  0  0  0
  8 18  1  0  0  0  0
  8 19  1  0  0  0  0
  9 20  1  0  0  0  0
  9 21  1  0  0  0  0
  9 22  1  0  0  0  0
 10 23  1  0  0  0  0
 10 24  1  0  0  0  0
M  END
> <PUBCHEM_COMPOUND_CID>
527424

> <PUBCHEM_COMPOUND_CANONICALIZED>
1

> <PUBCHEM_CACTVS_COMPLEXITY>
194

> <PUBCHEM_CACTVS_HBOND_ACCEPTOR>
0

> <PUBCHEM_CACTVS_HBOND_DONOR>
0

> <PUBCHEM_CACTVS_ROTATABLE_BOND>
1

> <PUBCHEM_CACTVS_SUBSKEYS>
AAADccBwAAAAAAAAAAAAAAAAAAAAAAAAAAAgAAAAAAAAAAAAAAAAGAAAAAAADQCAAAACAAAAAACAAiBCAAAAAAAgAAAICAAAAAgIAAIAAQAAAAAAgAAIgAIAAAAKAAAAAAAAAAAAAAAAAAAAAAAAAAAAAA==

> <PUBCHEM_IUPAC_OPENEYE_NAME>
5-isopropenyl-2-methyl-cyclohexa-1,3-diene

> <PUBCHEM_IUPAC_CAS_NAME>
2-methyl-5-(1-methylethenyl)cyclohexa-1,3-diene

> <PUBCHEM_IUPAC_NAME>
2-methyl-5-prop-1-en-2-ylcyclohexa-1,3-diene

> <PUBCHEM_IUPAC_SYSTEMATIC_NAME>
2-methyl-5-prop-1-en-2-yl-cyclohexa-1,3-diene

> <PUBCHEM_IUPAC_TRADITIONAL_NAME>
5-isopropenyl-2-methyl-cyclohexa-1,3-diene

> <PUBCHEM_IUPAC_INCHI>
InChI=1S/C10H14/c1-8(2)10-6-4-9(3)5-7-10/h4-6,10H,1,7H2,2-3H3

> <PUBCHEM_IUPAC_INCHIKEY>
NJLNIOKPXKKALD-UHFFFAOYSA-N

> <PUBCHEM_XLOGP3_AA>
3.3

> <PUBCHEM_EXACT_MASS>
134.11

> <PUBCHEM_MOLECULAR_FORMULA>
C10H14

> <PUBCHEM_MOLECULAR_WEIGHT>
134.222

> <PUBCHEM_OPENEYE_CAN_SMILES>
CC1=CCC(C=C1)C(=C)C

> <PUBCHEM_OPENEYE_ISO_SMILES>
CC1=CCC(C=C1)C(=C)C

> <PUBCHEM_CACTVS_TPSA>
0

> <PUBCHEM_MONOISOTOPIC_WEIGHT>
134.11

> <PUBCHEM_TOTAL_CHARGE>
0

> <PUBCHEM_HEAVY_ATOM_COUNT>
10

> <PUBCHEM_ATOM_DEF_STEREO_COUNT>
0

> <PUBCHEM_ATOM_UDEF_STEREO_COUNT>
1

> <PUBCHEM_BOND_DEF_STEREO_COUNT>
0

> <PUBCHEM_BOND_UDEF_STEREO_COUNT>
0

> <PUBCHEM_ISOTOPIC_ATOM_COUNT>
0

> <PUBCHEM_COMPONENT_COUNT>
1

> <PUBCHEM_CACTVS_TAUTO_COUNT>
-1

> <PUBCHEM_COORDINATE_TYPE>
1 __ 5 __ 255

> <PUBCHEM_BONDANNOTATIONS>
1  11  3

$$$$
5320250
 OpenBabel02201912233D

 26 25  0  0  0  0  0  0  0  0999 V2000
    1.1938   -0.1511    0.2249 C   0  0  0  0  0  0  0  0  0  0  0  0
    0.9795   -2.6958    0.5351 C   0  0  0  0  0  0  0  0  0  0  0  0
    0.4785   -1.4745    0.2606 C   0  0  0  0  0  0  0  0  0  0  0  0
    0.6400    0.7802    1.2711 C   0  0  0  0  0  0  0  0  0  0  0  0
   -0.3028    1.7424    1.1729 C   0  0  0  0  0  0  0  0  0  0  0  0
    0.0816   -3.9036    0.5321 C   0  0  0  0  0  0  0  0  0  0  0  0
    2.4196   -2.9702    0.8685 C   0  0  0  0  0  0  0  0  0  0  0  0
   -0.6895    2.5124    2.4150 C   0  0  0  0  0  0  0  0  0  0  0  0
   -1.0085    2.0644   -0.0619 C   0  0  0  0  0  0  0  0  0  0  0  0
   -1.9502    3.0057   -0.2082 C   0  0  0  0  0  0  0  0  0  0  0  0
    1.1090    0.2741   -0.7803 H   0  0  0  0  0  0  0  0  0  0  0  0
    2.2687   -0.2700    0.4057 H   0  0  0  0  0  0  0  0  0  0  0  0
   -0.5838   -1.3983    0.0276 H   0  0  0  0  0  0  0  0  0  0  0  0
    1.0892    0.6141    2.2505 H   0  0  0  0  0  0  0  0  0  0  0  0
    3.0812   -2.6332    0.0648 H   0  0  0  0  0  0  0  0  0  0  0  0
    2.7045   -2.4816    1.8056 H   0  0  0  0  0  0  0  0  0  0  0  0
    0.3998   -4.6115   -0.2407 H   0  0  0  0  0  0  0  0  0  0  0  0
    0.1140   -4.4079    1.5038 H   0  0  0  0  0  0  0  0  0  0  0  0
   -0.9646   -3.6435    0.3321 H   0  0  0  0  0  0  0  0  0  0  0  0
    2.5959   -4.0447    0.9978 H   0  0  0  0  0  0  0  0  0  0  0  0
   -0.4733    3.5794    2.2942 H   0  0  0  0  0  0  0  0  0  0  0  0
   -1.7568    2.3871    2.6306 H   0  0  0  0  0  0  0  0  0  0  0  0
   -0.1451    2.1698    3.3015 H   0  0  0  0  0  0  0  0  0  0  0  0
   -0.7504    1.4845   -0.9478 H   0  0  0  0  0  0  0  0  0  0  0  0
   -2.4244    3.1680   -1.1716 H   0  0  0  0  0  0  0  0  0  0  0  0
   -2.2854    3.6374    0.6075 H   0  0  0  0  0  0  0  0  0  0  0  0
  1  3  1  0  0  0  0
  1  4  1  0  0  0  0
  1 11  1  0  0  0  0
  1 12  1  0  0  0  0
  2  3  2  0  0  0  0
  2  6  1  0  0  0  0
  2  7  1  0  0  0  0
  3 13  1  0  0  0  0
  4  5  2  0  0  0  0
  4 14  1  0  0  0  0
  5  8  1  0  0  0  0
  5  9  1  0  0  0  0
  6 17  1  0  0  0  0
  6 18  1  0  0  0  0
  6 19  1  0  0  0  0
  7 15  1  0  0  0  0
  7 16  1  0  0  0  0
  7 20  1  0  0  0  0
  8 21  1  0  0  0  0
  8 22  1  0  0  0  0
  8 23  1  0  0  0  0
  9 10  2  0  0  0  0
  9 24  1  0  0  0  0
 10 25  1  0  0  0  0
 10 26  1  0  0  0  0
M  END
> <PUBCHEM_COMPOUND_CID>
5320250

> <PUBCHEM_COMPOUND_CANONICALIZED>
1

> <PUBCHEM_CACTVS_COMPLEXITY>
155

> <PUBCHEM_CACTVS_HBOND_ACCEPTOR>
0

> <PUBCHEM_CACTVS_HBOND_DONOR>
0

> <PUBCHEM_CACTVS_ROTATABLE_BOND>
3

> <PUBCHEM_CACTVS_SUBSKEYS>
AAADceBwAAAAAAAAAAAAAAAAAAAAAAAAAAAAAAAAAAAAAAAAAAAAGAAAAAAADACAAAACAAAAAACAAiBCAAAAAAAgAAAICAAAAAgIAAAAAQAAAAAAAAAIgAIAAAAAAAAAAAAAAAAAAAAAAAAAAAAAAAAAAA==

> <PUBCHEM_IUPAC_OPENEYE_NAME>
(3~{Z})-3,7-dimethylocta-1,3,6-triene

> <PUBCHEM_IUPAC_CAS_NAME>
(3~{Z})-3,7-dimethylocta-1,3,6-triene

> <PUBCHEM_IUPAC_NAME>
(3~{Z})-3,7-dimethylocta-1,3,6-triene

> <PUBCHEM_IUPAC_SYSTEMATIC_NAME>
(3~{Z})-3,7-dimethylocta-1,3,6-triene

> <PUBCHEM_IUPAC_TRADITIONAL_NAME>
(3~{Z})-3,7-dimethylocta-1,3,6-triene

> <PUBCHEM_IUPAC_INCHI>
InChI=1S/C10H16/c1-5-10(4)8-6-7-9(2)3/h5,7-8H,1,6H2,2-4H3/b10-8-

> <PUBCHEM_IUPAC_INCHIKEY>
IHPKGUQCSIINRJ-NTMALXAHSA-N

> <PUBCHEM_XLOGP3_AA>
4.3

> <PUBCHEM_EXACT_MASS>
136.125

> <PUBCHEM_MOLECULAR_FORMULA>
C10H16

> <PUBCHEM_MOLECULAR_WEIGHT>
136.238

> <PUBCHEM_OPENEYE_CAN_SMILES>
CC(=CCC=C(C)C=C)C

> <PUBCHEM_OPENEYE_ISO_SMILES>
CC(=CC/C=C(/C)\C=C)C

> <PUBCHEM_CACTVS_TPSA>
0

> <PUBCHEM_MONOISOTOPIC_WEIGHT>
136.125

> <PUBCHEM_TOTAL_CHARGE>
0

> <PUBCHEM_HEAVY_ATOM_COUNT>
10

> <PUBCHEM_ATOM_DEF_STEREO_COUNT>
0

> <PUBCHEM_ATOM_UDEF_STEREO_COUNT>
0

> <PUBCHEM_BOND_DEF_STEREO_COUNT>
1

> <PUBCHEM_BOND_UDEF_STEREO_COUNT>
0

> <PUBCHEM_ISOTOPIC_ATOM_COUNT>
0

> <PUBCHEM_COMPONENT_COUNT>
1

> <PUBCHEM_CACTVS_TAUTO_COUNT>
-1

> <PUBCHEM_COORDINATE_TYPE>
1 __ 5 __ 255

$$$$
5281553
 OpenBabel02201912233D

 26 25  0  0  0  0  0  0  0  0999 V2000
    1.0720    0.0960   -0.0575 C   0  0  0  0  0  0  0  0  0  0  0  0
   -0.3510    2.1283   -0.6857 C   0  0  0  0  0  0  0  0  0  0  0  0
    0.4698    1.1035   -0.9989 C   0  0  0  0  0  0  0  0  0  0  0  0
    0.7338   -1.3238   -0.4382 C   0  0  0  0  0  0  0  0  0  0  0  0
    1.5651   -2.3001   -0.8682 C   0  0  0  0  0  0  0  0  0  0  0  0
   -0.8118    3.1027   -1.7362 C   0  0  0  0  0  0  0  0  0  0  0  0
   -0.8515    2.4071    0.7066 C   0  0  0  0  0  0  0  0  0  0  0  0
    3.0339   -2.1004   -1.1461 C   0  0  0  0  0  0  0  0  0  0  0  0
    1.0235   -3.6448   -1.0705 C   0  0  0  0  0  0  0  0  0  0  0  0
    1.7144   -4.7391   -1.4219 C   0  0  0  0  0  0  0  0  0  0  0  0
    0.7236    0.2539    0.9695 H   0  0  0  0  0  0  0  0  0  0  0  0
    2.1514    0.2658   -0.0295 H   0  0  0  0  0  0  0  0  0  0  0  0
    0.7856    0.9909   -2.0368 H   0  0  0  0  0  0  0  0  0  0  0  0
   -0.3176   -1.5632   -0.2826 H   0  0  0  0  0  0  0  0  0  0  0  0
   -1.4684    1.5802    1.0700 H   0  0  0  0  0  0  0  0  0  0  0  0
   -0.0192    2.5739    1.3964 H   0  0  0  0  0  0  0  0  0  0  0  0
   -1.9026    3.0834   -1.8236 H   0  0  0  0  0  0  0  0  0  0  0  0
   -0.5027    4.1196   -1.4686 H   0  0  0  0  0  0  0  0  0  0  0  0
   -0.3913    2.8810   -2.7228 H   0  0  0  0  0  0  0  0  0  0  0  0
   -1.4740    3.3096    0.7286 H   0  0  0  0  0  0  0  0  0  0  0  0
    3.6404   -2.7024   -0.4607 H   0  0  0  0  0  0  0  0  0  0  0  0
    3.2715   -2.3955   -2.1751 H   0  0  0  0  0  0  0  0  0  0  0  0
    3.3611   -1.0644   -1.0439 H   0  0  0  0  0  0  0  0  0  0  0  0
   -0.0456   -3.7711   -0.8967 H   0  0  0  0  0  0  0  0  0  0  0  0
    1.2110   -5.6960   -1.5247 H   0  0  0  0  0  0  0  0  0  0  0  0
    2.7826   -4.7321   -1.6074 H   0  0  0  0  0  0  0  0  0  0  0  0
  1  3  1  0  0  0  0
  1  4  1  0  0  0  0
  1 11  1  0  0  0  0
  1 12  1  0  0  0  0
  2  3  2  0  0  0  0
  2  6  1  0  0  0  0
  2  7  1  0  0  0  0
  3 13  1  0  0  0  0
  4  5  2  0  0  0  0
  4 14  1  0  0  0  0
  5  8  1  0  0  0  0
  5  9  1  0  0  0  0
  6 17  1  0  0  0  0
  6 18  1  0  0  0  0
  6 19  1  0  0  0  0
  7 15  1  0  0  0  0
  7 16  1  0  0  0  0
  7 20  1  0  0  0  0
  8 21  1  0  0  0  0
  8 22  1  0  0  0  0
  8 23  1  0  0  0  0
  9 10  2  0  0  0  0
  9 24  1  0  0  0  0
 10 25  1  0  0  0  0
 10 26  1  0  0  0  0
M  END
> <PUBCHEM_COMPOUND_CID>
5281553

> <PUBCHEM_COMPOUND_CANONICALIZED>
1

> <PUBCHEM_CACTVS_COMPLEXITY>
155

> <PUBCHEM_CACTVS_HBOND_ACCEPTOR>
0

> <PUBCHEM_CACTVS_HBOND_DONOR>
0

> <PUBCHEM_CACTVS_ROTATABLE_BOND>
3

> <PUBCHEM_CACTVS_SUBSKEYS>
AAADceBwAAAAAAAAAAAAAAAAAAAAAAAAAAAAAAAAAAAAAAAAAAAAGAAAAAAADACAAAACAAAAAACAAiBCAAAAAAAgAAAICAAAAAgIAAAAAQAAAAAAAAAIgAIAAAAAAAAAAAAAAAAAAAAAAAAAAAAAAAAAAA==

> <PUBCHEM_IUPAC_OPENEYE_NAME>
(3~{E})-3,7-dimethylocta-1,3,6-triene

> <PUBCHEM_IUPAC_CAS_NAME>
(3~{E})-3,7-dimethylocta-1,3,6-triene

> <PUBCHEM_IUPAC_NAME>
(3~{E})-3,7-dimethylocta-1,3,6-triene

> <PUBCHEM_IUPAC_SYSTEMATIC_NAME>
(3~{E})-3,7-dimethylocta-1,3,6-triene

> <PUBCHEM_IUPAC_TRADITIONAL_NAME>
(3~{E})-3,7-dimethylocta-1,3,6-triene

> <PUBCHEM_IUPAC_INCHI>
InChI=1S/C10H16/c1-5-10(4)8-6-7-9(2)3/h5,7-8H,1,6H2,2-4H3/b10-8+

> <PUBCHEM_IUPAC_INCHIKEY>
IHPKGUQCSIINRJ-CSKARUKUSA-N

> <PUBCHEM_XLOGP3_AA>
4.3

> <PUBCHEM_EXACT_MASS>
136.125

> <PUBCHEM_MOLECULAR_FORMULA>
C10H16

> <PUBCHEM_MOLECULAR_WEIGHT>
136.238

> <PUBCHEM_OPENEYE_CAN_SMILES>
CC(=CCC=C(C)C=C)C

> <PUBCHEM_OPENEYE_ISO_SMILES>
CC(=CC/C=C(\C)/C=C)C

> <PUBCHEM_CACTVS_TPSA>
0

> <PUBCHEM_MONOISOTOPIC_WEIGHT>
136.125

> <PUBCHEM_TOTAL_CHARGE>
0

> <PUBCHEM_HEAVY_ATOM_COUNT>
10

> <PUBCHEM_ATOM_DEF_STEREO_COUNT>
0

> <PUBCHEM_ATOM_UDEF_STEREO_COUNT>
0

> <PUBCHEM_BOND_DEF_STEREO_COUNT>
1

> <PUBCHEM_BOND_UDEF_STEREO_COUNT>
0

> <PUBCHEM_ISOTOPIC_ATOM_COUNT>
0

> <PUBCHEM_COMPONENT_COUNT>
1

> <PUBCHEM_CACTVS_TAUTO_COUNT>
-1

> <PUBCHEM_COORDINATE_TYPE>
1 __ 5 __ 255

$$$$
7463_2
 OpenBabel02201912233D

 24 24  0  0  0  0  0  0  0  0999 V2000
    0.9010   -0.0181    0.1148 C   0  0  0  0  0  0  0  0  0  0  0  0
    0.4036    1.4094   -0.0322 C   0  0  0  0  0  0  0  0  0  0  0  0
    0.9480   -0.7320   -1.2390 C   0  0  0  0  0  0  0  0  0  0  0  0
    0.0680   -0.8119    1.1220 C   0  0  0  0  0  0  0  0  0  0  0  0
   -0.8659    1.6982   -0.5529 C   0  0  0  0  0  0  0  0  0  0  0  0
    1.2339    2.4784    0.3329 C   0  0  0  0  0  0  0  0  0  0  0  0
   -0.4406    4.0823   -0.3823 C   0  0  0  0  0  0  0  0  0  0  0  0
   -1.2819    3.0201   -0.7299 C   0  0  0  0  0  0  0  0  0  0  0  0
    0.8173    3.8008    0.1570 C   0  0  0  0  0  0  0  0  0  0  0  0
   -0.8791    5.4961   -0.6246 C   0  0  0  0  0  0  0  0  0  0  0  0
    1.9300    0.0096    0.4975 H   0  0  0  0  0  0  0  0  0  0  0  0
    1.4093   -1.7203   -1.1368 H   0  0  0  0  0  0  0  0  0  0  0  0
   -0.0523   -0.8751   -1.6618 H   0  0  0  0  0  0  0  0  0  0  0  0
    1.5376   -0.1599   -1.9641 H   0  0  0  0  0  0  0  0  0  0  0  0
    0.4748   -1.8212    1.2468 H   0  0  0  0  0  0  0  0  0  0  0  0
    0.0729   -0.3252    2.1036 H   0  0  0  0  0  0  0  0  0  0  0  0
   -0.9755   -0.9111    0.8044 H   0  0  0  0  0  0  0  0  0  0  0  0
   -1.5398    0.8949   -0.8406 H   0  0  0  0  0  0  0  0  0  0  0  0
    2.2223    2.2910    0.7467 H   0  0  0  0  0  0  0  0  0  0  0  0
   -2.2654    3.2158   -1.1514 H   0  0  0  0  0  0  0  0  0  0  0  0
    1.4899    4.6084    0.4366 H   0  0  0  0  0  0  0  0  0  0  0  0
   -0.9633    5.6816   -1.7004 H   0  0  0  0  0  0  0  0  0  0  0  0
   -1.8480    5.6817   -0.1506 H   0  0  0  0  0  0  0  0  0  0  0  0
   -0.1630    6.2147   -0.2128 H   0  0  0  0  0  0  0  0  0  0  0  0
  1  2  1  0  0  0  0
  1  3  1  0  0  0  0
  1  4  1  0  0  0  0
  1 11  1  0  0  0  0
  2  5  2  0  0  0  0
  2  6  1  0  0  0  0
  3 12  1  0  0  0  0
  3 13  1  0  0  0  0
  3 14  1  0  0  0  0
  4 15  1  0  0  0  0
  4 16  1  0  0  0  0
  4 17  1  0  0  0  0
  5  8  1  0  0  0  0
  5 18  1  0  0  0  0
  6  9  2  0  0  0  0
  6 19  1  0  0  0  0
  7  8  2  0  0  0  0
  7  9  1  0  0  0  0
  7 10  1  0  0  0  0
  8 20  1  0  0  0  0
  9 21  1  0  0  0  0
 10 22  1  0  0  0  0
 10 23  1  0  0  0  0
 10 24  1  0  0  0  0
M  END
> <PUBCHEM_COMPOUND_CID>
7463

> <PUBCHEM_COMPOUND_CANONICALIZED>
1

> <PUBCHEM_CACTVS_COMPLEXITY>
86.2

> <PUBCHEM_CACTVS_HBOND_ACCEPTOR>
0

> <PUBCHEM_CACTVS_HBOND_DONOR>
0

> <PUBCHEM_CACTVS_ROTATABLE_BOND>
1

> <PUBCHEM_CACTVS_SUBSKEYS>
AAADccBwAAAAAAAAAAAAAAAAAAAAAAAAAAAwAAAAAAAAAAABAAAAGAAAAAAADQCAGAAyAIAAAACAAiBCAAACAAAgAAAIiAAAAIgIICKAERCAIAAggAAIiAcAgMAOwAAAAAAAAACAAAAAAAAAAAAAAAAAAA==

> <PUBCHEM_IUPAC_OPENEYE_NAME>
1-isopropyl-4-methyl-benzene

> <PUBCHEM_IUPAC_CAS_NAME>
1-methyl-4-propan-2-ylbenzene

> <PUBCHEM_IUPAC_NAME>
1-methyl-4-propan-2-ylbenzene

> <PUBCHEM_IUPAC_SYSTEMATIC_NAME>
1-methyl-4-propan-2-yl-benzene

> <PUBCHEM_IUPAC_TRADITIONAL_NAME>
p-cymene

> <PUBCHEM_IUPAC_INCHI>
InChI=1S/C10H14/c1-8(2)10-6-4-9(3)5-7-10/h4-8H,1-3H3

> <PUBCHEM_IUPAC_INCHIKEY>
HFPZCAJZSCWRBC-UHFFFAOYSA-N

> <PUBCHEM_XLOGP3>
4.1

> <PUBCHEM_EXACT_MASS>
134.11

> <PUBCHEM_MOLECULAR_FORMULA>
C10H14

> <PUBCHEM_MOLECULAR_WEIGHT>
134.222

> <PUBCHEM_OPENEYE_CAN_SMILES>
CC1=CC=C(C=C1)C(C)C

> <PUBCHEM_OPENEYE_ISO_SMILES>
CC1=CC=C(C=C1)C(C)C

> <PUBCHEM_CACTVS_TPSA>
0

> <PUBCHEM_MONOISOTOPIC_WEIGHT>
134.11

> <PUBCHEM_TOTAL_CHARGE>
0

> <PUBCHEM_HEAVY_ATOM_COUNT>
10

> <PUBCHEM_ATOM_DEF_STEREO_COUNT>
0

> <PUBCHEM_ATOM_UDEF_STEREO_COUNT>
0

> <PUBCHEM_BOND_DEF_STEREO_COUNT>
0

> <PUBCHEM_BOND_UDEF_STEREO_COUNT>
0

> <PUBCHEM_ISOTOPIC_ATOM_COUNT>
0

> <PUBCHEM_COMPONENT_COUNT>
1

> <PUBCHEM_CACTVS_TAUTO_COUNT>
-1

> <PUBCHEM_COORDINATE_TYPE>
1 __ 5 __ 255

> <PUBCHEM_BONDANNOTATIONS>
2  5  8 __ 2  6  8 __ 5  8  8 __ 6  9  8 __ 7  8  8 __ 7  9  8

$$$$
121719
 OpenBabel02201912233D

 25 26  0  0  1  0  0  0  0  0999 V2000
    1.2571    0.0761    0.9334 O   0  0  0  0  0  0  0  0  0  0  0  0
    5.2873    0.0799   -0.4448 C   0  0  0  0  0  0  0  0  0  0  0  0
    4.2345    1.1345   -1.0028 C   0  0  3  0  0  0  0  0  0  0  0  0
    4.2313   -0.9881   -0.9676 C   0  0  3  0  0  0  0  0  0  0  0  0
    3.8892    0.0628   -2.0845 C   0  0  0  0  0  0  0  0  0  0  0  0
    2.9916    1.3908   -0.1260 C   0  0  0  0  0  0  0  0  0  0  0  0
    3.0693   -1.1561   -0.0370 C   0  0  0  0  0  0  0  0  0  0  0  0
    6.6378    0.0602   -1.1862 C   0  0  0  0  0  0  0  0  0  0  0  0
    5.5791    0.0995    1.0610 C   0  0  0  0  0  0  0  0  0  0  0  0
    2.3174    0.0964    0.3164 C   0  0  0  0  0  0  0  0  0  0  0  0
    2.7854   -2.3328    0.5336 C   0  0  0  0  0  0  0  0  0  0  0  0
    4.6657    2.0647   -1.3865 H   0  0  0  0  0  0  0  0  0  0  0  0
    4.6466   -1.9298   -1.3406 H   0  0  0  0  0  0  0  0  0  0  0  0
    2.8622    0.0646   -2.4667 H   0  0  0  0  0  0  0  0  0  0  0  0
    4.5483    0.0488   -2.9589 H   0  0  0  0  0  0  0  0  0  0  0  0
    2.2600    1.9777   -0.6923 H   0  0  0  0  0  0  0  0  0  0  0  0
    3.2732    1.9555    0.7686 H   0  0  0  0  0  0  0  0  0  0  0  0
    7.2280    0.9468   -0.9298 H   0  0  0  0  0  0  0  0  0  0  0  0
    7.2170   -0.8257   -0.9035 H   0  0  0  0  0  0  0  0  0  0  0  0
    6.5366    0.0451   -2.2745 H   0  0  0  0  0  0  0  0  0  0  0  0
    4.6809    0.1590    1.6800 H   0  0  0  0  0  0  0  0  0  0  0  0
    6.1145   -0.8096    1.3573 H   0  0  0  0  0  0  0  0  0  0  0  0
    6.2045    0.9603    1.3225 H   0  0  0  0  0  0  0  0  0  0  0  0
    3.3653   -3.2255    0.3270 H   0  0  0  0  0  0  0  0  0  0  0  0
    1.9695   -2.4231    1.2467 H   0  0  0  0  0  0  0  0  0  0  0  0
  1 10  2  0  0  0  0
  2  3  1  0  0  0  0
  2  4  1  0  0  0  0
  2  8  1  0  0  0  0
  2  9  1  0  0  0  0
  3  5  1  0  0  0  0
  3  6  1  0  0  0  0
  3 12  1  0  0  0  0
  4  5  1  0  0  0  0
  4  7  1  0  0  0  0
  4 13  1  0  0  0  0
  5 14  1  0  0  0  0
  5 15  1  0  0  0  0
  6 10  1  0  0  0  0
  6 16  1  0  0  0  0
  6 17  1  0  0  0  0
  7 10  1  0  0  0  0
  7 11  2  0  0  0  0
  8 18  1  0  0  0  0
  8 19  1  0  0  0  0
  8 20  1  0  0  0  0
  9 21  1  0  0  0  0
  9 22  1  0  0  0  0
  9 23  1  0  0  0  0
 11 24  1  0  0  0  0
 11 25  1  0  0  0  0
M  END
> <PUBCHEM_COMPOUND_CID>
121719

> <PUBCHEM_COMPOUND_CANONICALIZED>
1

> <PUBCHEM_CACTVS_COMPLEXITY>
237

> <PUBCHEM_CACTVS_HBOND_ACCEPTOR>
1

> <PUBCHEM_CACTVS_HBOND_DONOR>
0

> <PUBCHEM_CACTVS_ROTATABLE_BOND>
0

> <PUBCHEM_CACTVS_SUBSKEYS>
AAADccBwIAAAAAAAAAAAAAAAAABgAAAAAAAwYAAAAAAAAAAAAAAAGgAAAAAADwSAgAACAAAAAACIAoBSAAAAAAAgAAAAAAEAAEgAABIAAQAAAAAAgAAAAIEIiMCPgAAAAAAAAAAAAAAAACAAAAAAAAAAAA==

> <PUBCHEM_IUPAC_OPENEYE_NAME>
6,6-dimethyl-2-methylene-norpinan-3-one

> <PUBCHEM_IUPAC_CAS_NAME>
6,6-dimethyl-2-methylene-3-bicyclo[3.1.1]heptanone

> <PUBCHEM_IUPAC_NAME>
6,6-dimethyl-2-methylidenebicyclo[3.1.1]heptan-3-one

> <PUBCHEM_IUPAC_SYSTEMATIC_NAME>
6,6-dimethyl-2-methylidene-bicyclo[3.1.1]heptan-3-one

> <PUBCHEM_IUPAC_TRADITIONAL_NAME>
6,6-dimethyl-2-methylene-norpinan-3-one

> <PUBCHEM_IUPAC_INCHI>
InChI=1S/C10H14O/c1-6-8-4-7(5-9(6)11)10(8,2)3/h7-8H,1,4-5H2,2-3H3

> <PUBCHEM_IUPAC_INCHIKEY>
TZDMGBLPGZXHJI-UHFFFAOYSA-N

> <PUBCHEM_XLOGP3_AA>
2.2

> <PUBCHEM_EXACT_MASS>
150.104

> <PUBCHEM_MOLECULAR_FORMULA>
C10H14O

> <PUBCHEM_MOLECULAR_WEIGHT>
150.221

> <PUBCHEM_OPENEYE_CAN_SMILES>
CC1(C2CC1C(=C)C(=O)C2)C

> <PUBCHEM_OPENEYE_ISO_SMILES>
CC1(C2CC1C(=C)C(=O)C2)C

> <PUBCHEM_CACTVS_TPSA>
17.1

> <PUBCHEM_MONOISOTOPIC_WEIGHT>
150.104

> <PUBCHEM_TOTAL_CHARGE>
0

> <PUBCHEM_HEAVY_ATOM_COUNT>
11

> <PUBCHEM_ATOM_DEF_STEREO_COUNT>
0

> <PUBCHEM_ATOM_UDEF_STEREO_COUNT>
2

> <PUBCHEM_BOND_DEF_STEREO_COUNT>
0

> <PUBCHEM_BOND_UDEF_STEREO_COUNT>
0

> <PUBCHEM_ISOTOPIC_ATOM_COUNT>
0

> <PUBCHEM_COMPONENT_COUNT>
1

> <PUBCHEM_CACTVS_TAUTO_COUNT>
-1

> <PUBCHEM_COORDINATE_TYPE>
1 __ 5 __ 255

> <PUBCHEM_BONDANNOTATIONS>
3  2  3 __ 4  2  3

$$$$
10282
 OpenBabel02201912233D

 29 29  0  0  1  0  0  0  0  0999 V2000
    1.2676   -0.2166   -0.2607 O   0  0  0  0  0  0  0  0  0  0  0  0
    0.1075   -1.9004    1.0387 C   0  0  3  0  0  0  0  0  0  0  0  0
    0.5602   -3.3747    1.1342 C   0  0  0  0  0  0  0  0  0  0  0  0
   -1.3153   -1.6221    1.6118 C   0  0  0  0  0  0  0  0  0  0  0  0
    0.2817   -1.2445   -0.3555 C   0  0  3  0  0  0  0  0  0  0  0  0
    0.5652   -4.2143   -0.1459 C   0  0  0  0  0  0  0  0  0  0  0  0
    0.8093   -3.4646   -1.4198 C   0  0  0  0  0  0  0  0  0  0  0  0
    0.6916   -2.1292   -1.4845 C   0  0  0  0  0  0  0  0  0  0  0  0
   -2.4310   -2.3544    0.8662 C   0  0  0  0  0  0  0  0  0  0  0  0
   -1.4029   -1.9116    3.1160 C   0  0  0  0  0  0  0  0  0  0  0  0
    1.1388   -4.2720   -2.6398 C   0  0  0  0  0  0  0  0  0  0  0  0
    0.7776   -1.3588    1.7248 H   0  0  0  0  0  0  0  0  0  0  0  0
   -1.5027   -0.5439    1.5005 H   0  0  0  0  0  0  0  0  0  0  0  0
    1.5887   -3.3703    1.5197 H   0  0  0  0  0  0  0  0  0  0  0  0
   -0.0143   -3.9215    1.8883 H   0  0  0  0  0  0  0  0  0  0  0  0
   -0.6398   -0.7358   -0.6600 H   0  0  0  0  0  0  0  0  0  0  0  0
    1.3453   -4.9797   -0.0298 H   0  0  0  0  0  0  0  0  0  0  0  0
   -0.3846   -4.7540   -0.2402 H   0  0  0  0  0  0  0  0  0  0  0  0
    0.8580   -1.6266   -2.4371 H   0  0  0  0  0  0  0  0  0  0  0  0
   -2.3237   -3.4403    0.9416 H   0  0  0  0  0  0  0  0  0  0  0  0
   -3.4072   -2.0854    1.2850 H   0  0  0  0  0  0  0  0  0  0  0  0
   -0.6167   -1.3735    3.6612 H   0  0  0  0  0  0  0  0  0  0  0  0
   -2.3666   -1.5765    3.5128 H   0  0  0  0  0  0  0  0  0  0  0  0
   -1.3074   -2.9778    3.3416 H   0  0  0  0  0  0  0  0  0  0  0  0
   -2.4495   -2.0840   -0.1941 H   0  0  0  0  0  0  0  0  0  0  0  0
    0.3694   -4.1326   -3.4069 H   0  0  0  0  0  0  0  0  0  0  0  0
    2.1103   -3.9794   -3.0531 H   0  0  0  0  0  0  0  0  0  0  0  0
    1.1839   -5.3414   -2.4125 H   0  0  0  0  0  0  0  0  0  0  0  0
    2.1180   -0.6554   -0.0932 H   0  0  0  0  0  0  0  0  0  0  0  0
  1  5  1  0  0  0  0
  1 29  1  0  0  0  0
  2  3  1  0  0  0  0
  2  4  1  0  0  0  0
  2  5  1  0  0  0  0
  2 12  1  0  0  0  0
  3  6  1  0  0  0  0
  3 14  1  0  0  0  0
  3 15  1  0  0  0  0
  4  9  1  0  0  0  0
  4 10  1  0  0  0  0
  4 13  1  0  0  0  0
  5  8  1  0  0  0  0
  5 16  1  0  0  0  0
  6  7  1  0  0  0  0
  6 17  1  0  0  0  0
  6 18  1  0  0  0  0
  7  8  2  0  0  0  0
  7 11  1  0  0  0  0
  8 19  1  0  0  0  0
  9 20  1  0  0  0  0
  9 21  1  0  0  0  0
  9 25  1  0  0  0  0
 10 22  1  0  0  0  0
 10 23  1  0  0  0  0
 10 24  1  0  0  0  0
 11 26  1  0  0  0  0
 11 27  1  0  0  0  0
 11 28  1  0  0  0  0
M  END
> <PUBCHEM_COMPOUND_CID>
10282

> <PUBCHEM_COMPOUND_CANONICALIZED>
1

> <PUBCHEM_CACTVS_COMPLEXITY>
158

> <PUBCHEM_CACTVS_HBOND_ACCEPTOR>
1

> <PUBCHEM_CACTVS_HBOND_DONOR>
1

> <PUBCHEM_CACTVS_ROTATABLE_BOND>
1

> <PUBCHEM_CACTVS_SUBSKEYS>
AAADceBwIAAAAAAAAAAAAAAAAAAAAAAAAAAgAAAAAAAAAAAAAAAAGgAACAAADRSggAICAAAAAgCAAiBCAAAAAAAgAAAACAAAAAgAFAIAAQAAUAAEgAAIEAOAwEAOgAAAAAAAAAAAAAAAAAAAAAAAAAAAAA==

> <PUBCHEM_IUPAC_OPENEYE_NAME>
6-isopropyl-3-methyl-cyclohex-2-en-1-ol

> <PUBCHEM_IUPAC_CAS_NAME>
3-methyl-6-propan-2-yl-1-cyclohex-2-enol

> <PUBCHEM_IUPAC_NAME>
3-methyl-6-propan-2-ylcyclohex-2-en-1-ol

> <PUBCHEM_IUPAC_SYSTEMATIC_NAME>
3-methyl-6-propan-2-yl-cyclohex-2-en-1-ol

> <PUBCHEM_IUPAC_TRADITIONAL_NAME>
6-isopropyl-3-methyl-cyclohex-2-en-1-ol

> <PUBCHEM_IUPAC_INCHI>
InChI=1S/C10H18O/c1-7(2)9-5-4-8(3)6-10(9)11/h6-7,9-11H,4-5H2,1-3H3

> <PUBCHEM_IUPAC_INCHIKEY>
HPOHAUWWDDPHRS-UHFFFAOYSA-N

> <PUBCHEM_XLOGP3_AA>
2.1

> <PUBCHEM_EXACT_MASS>
154.136

> <PUBCHEM_MOLECULAR_FORMULA>
C10H18O

> <PUBCHEM_MOLECULAR_WEIGHT>
154.253

> <PUBCHEM_OPENEYE_CAN_SMILES>
CC1=CC(C(CC1)C(C)C)O

> <PUBCHEM_OPENEYE_ISO_SMILES>
CC1=CC(C(CC1)C(C)C)O

> <PUBCHEM_CACTVS_TPSA>
20.2

> <PUBCHEM_MONOISOTOPIC_WEIGHT>
154.136

> <PUBCHEM_TOTAL_CHARGE>
0

> <PUBCHEM_HEAVY_ATOM_COUNT>
11

> <PUBCHEM_ATOM_DEF_STEREO_COUNT>
0

> <PUBCHEM_ATOM_UDEF_STEREO_COUNT>
2

> <PUBCHEM_BOND_DEF_STEREO_COUNT>
0

> <PUBCHEM_BOND_UDEF_STEREO_COUNT>
0

> <PUBCHEM_ISOTOPIC_ATOM_COUNT>
0

> <PUBCHEM_COMPONENT_COUNT>
1

> <PUBCHEM_CACTVS_TAUTO_COUNT>
-1

> <PUBCHEM_COORDINATE_TYPE>
1 __ 5 __ 255

> <PUBCHEM_BONDANNOTATIONS>
2  12  3 __ 5  16  3

$$$$
6987
 OpenBabel02201912233D

 27 27  0  0  1  0  0  0  0  0999 V2000
    1.0456   -0.1693   -0.3144 O   0  0  0  0  0  0  0  0  0  0  0  0
    2.9742    1.2084    0.1050 C   0  0  3  0  0  0  0  0  0  0  0  0
    2.6217    1.7367    1.5191 C   0  0  0  0  0  0  0  0  0  0  0  0
    4.4640    1.1663   -0.2666 C   0  0  0  0  0  0  0  0  0  0  0  0
    5.2085   -0.1427   -0.0059 C   0  0  0  0  0  0  0  0  0  0  0  0
    2.2621   -0.1070   -0.1601 C   0  0  0  0  0  0  0  0  0  0  0  0
    4.3728   -1.3854   -0.0659 C   0  0  0  0  0  0  0  0  0  0  0  0
    3.2248    0.9184    2.6601 C   0  0  0  0  0  0  0  0  0  0  0  0
    2.9881    3.2164    1.6790 C   0  0  0  0  0  0  0  0  0  0  0  0
    3.0348   -1.3711   -0.1596 C   0  0  0  0  0  0  0  0  0  0  0  0
    5.1112   -2.6950   -0.0002 C   0  0  0  0  0  0  0  0  0  0  0  0
    2.5189    1.9119   -0.6084 H   0  0  0  0  0  0  0  0  0  0  0  0
    1.5303    1.6758    1.6338 H   0  0  0  0  0  0  0  0  0  0  0  0
    4.5350    1.3703   -1.3452 H   0  0  0  0  0  0  0  0  0  0  0  0
    5.0158    1.9840    0.2084 H   0  0  0  0  0  0  0  0  0  0  0  0
    6.0088   -0.2202   -0.7542 H   0  0  0  0  0  0  0  0  0  0  0  0
    5.7051   -0.0976    0.9707 H   0  0  0  0  0  0  0  0  0  0  0  0
    4.3168    0.9029    2.6187 H   0  0  0  0  0  0  0  0  0  0  0  0
    2.9376    1.3433    3.6285 H   0  0  0  0  0  0  0  0  0  0  0  0
    2.8590   -0.1128    2.6407 H   0  0  0  0  0  0  0  0  0  0  0  0
    2.4904    3.8236    0.9150 H   0  0  0  0  0  0  0  0  0  0  0  0
    2.6672    3.5909    2.6570 H   0  0  0  0  0  0  0  0  0  0  0  0
    4.0657    3.3860    1.6009 H   0  0  0  0  0  0  0  0  0  0  0  0
    2.4457   -2.2793   -0.2030 H   0  0  0  0  0  0  0  0  0  0  0  0
    4.8479   -3.2391    0.9109 H   0  0  0  0  0  0  0  0  0  0  0  0
    4.8762   -3.3180   -0.8701 H   0  0  0  0  0  0  0  0  0  0  0  0
    6.1951   -2.5410    0.0093 H   0  0  0  0  0  0  0  0  0  0  0  0
  1  6  2  0  0  0  0
  2  3  1  0  0  0  0
  2  4  1  0  0  0  0
  2  6  1  0  0  0  0
  2 12  1  0  0  0  0
  3  8  1  0  0  0  0
  3  9  1  0  0  0  0
  3 13  1  0  0  0  0
  4  5  1  0  0  0  0
  4 14  1  0  0  0  0
  4 15  1  0  0  0  0
  5  7  1  0  0  0  0
  5 16  1  0  0  0  0
  5 17  1  0  0  0  0
  6 10  1  0  0  0  0
  7 10  2  0  0  0  0
  7 11  1  0  0  0  0
  8 18  1  0  0  0  0
  8 19  1  0  0  0  0
  8 20  1  0  0  0  0
  9 21  1  0  0  0  0
  9 22  1  0  0  0  0
  9 23  1  0  0  0  0
 10 24  1  0  0  0  0
 11 25  1  0  0  0  0
 11 26  1  0  0  0  0
 11 27  1  0  0  0  0
M  END
> <PUBCHEM_COMPOUND_CID>
6987

> <PUBCHEM_COMPOUND_CANONICALIZED>
1

> <PUBCHEM_CACTVS_COMPLEXITY>
189

> <PUBCHEM_CACTVS_HBOND_ACCEPTOR>
1

> <PUBCHEM_CACTVS_HBOND_DONOR>
0

> <PUBCHEM_CACTVS_ROTATABLE_BOND>
1

> <PUBCHEM_CACTVS_SUBSKEYS>
AAADceBwIAAAAAAAAAAAAAAAAAAAAAAAAAAgAAAAAAAAAAAAAAAAGgAAAAAADQSAgAACAAAAAACIAqBSAAAAAAAgAAAACAEAAEgAABIAAQAAAAAAgAAIAQMIiEAOgAAAAAAAAAAAAAAAAAAAAAAAAAAAAA==

> <PUBCHEM_IUPAC_OPENEYE_NAME>
6-isopropyl-3-methyl-cyclohex-2-en-1-one

> <PUBCHEM_IUPAC_CAS_NAME>
3-methyl-6-propan-2-yl-1-cyclohex-2-enone

> <PUBCHEM_IUPAC_NAME>
3-methyl-6-propan-2-ylcyclohex-2-en-1-one

> <PUBCHEM_IUPAC_SYSTEMATIC_NAME>
3-methyl-6-propan-2-yl-cyclohex-2-en-1-one

> <PUBCHEM_IUPAC_TRADITIONAL_NAME>
6-isopropyl-3-methyl-cyclohex-2-en-1-one

> <PUBCHEM_IUPAC_INCHI>
InChI=1S/C10H16O/c1-7(2)9-5-4-8(3)6-10(9)11/h6-7,9H,4-5H2,1-3H3

> <PUBCHEM_IUPAC_INCHIKEY>
YSTPAHQEHQSRJD-UHFFFAOYSA-N

> <PUBCHEM_XLOGP3_AA>
2.2

> <PUBCHEM_EXACT_MASS>
152.12

> <PUBCHEM_MOLECULAR_FORMULA>
C10H16O

> <PUBCHEM_MOLECULAR_WEIGHT>
152.237

> <PUBCHEM_OPENEYE_CAN_SMILES>
CC1=CC(=O)C(CC1)C(C)C

> <PUBCHEM_OPENEYE_ISO_SMILES>
CC1=CC(=O)C(CC1)C(C)C

> <PUBCHEM_CACTVS_TPSA>
17.1

> <PUBCHEM_MONOISOTOPIC_WEIGHT>
152.12

> <PUBCHEM_TOTAL_CHARGE>
0

> <PUBCHEM_HEAVY_ATOM_COUNT>
11

> <PUBCHEM_ATOM_DEF_STEREO_COUNT>
0

> <PUBCHEM_ATOM_UDEF_STEREO_COUNT>
1

> <PUBCHEM_BOND_DEF_STEREO_COUNT>
0

> <PUBCHEM_BOND_UDEF_STEREO_COUNT>
0

> <PUBCHEM_ISOTOPIC_ATOM_COUNT>
0

> <PUBCHEM_COMPONENT_COUNT>
1

> <PUBCHEM_CACTVS_TAUTO_COUNT>
-1

> <PUBCHEM_COORDINATE_TYPE>
1 __ 5 __ 255

> <PUBCHEM_BONDANNOTATIONS>
2  3  3

$$$$
18818
 OpenBabel02201912233D

 26 27  0  0  1  0  0  0  0  0999 V2000
    0.4164    1.0883    0.0484 C   0  0  3  0  0  0  0  0  0  0  0  0
    0.5514   -0.3945   -0.2832 C   0  0  3  0  0  0  0  0  0  0  0  0
    1.3332    0.1733    0.8559 C   0  0  0  0  0  0  0  0  0  0  0  0
   -1.0300    1.2900    0.5053 C   0  0  0  0  0  0  0  0  0  0  0  0
    1.0019    2.2200   -0.7881 C   0  0  0  0  0  0  0  0  0  0  0  0
   -0.7477   -1.0148    0.0295 C   0  0  0  0  0  0  0  0  0  0  0  0
   -1.8019    0.0633   -0.0068 C   0  0  0  0  0  0  0  0  0  0  0  0
    2.5285    2.2983   -0.7879 C   0  0  0  0  0  0  0  0  0  0  0  0
    0.4756    2.2093   -2.2224 C   0  0  0  0  0  0  0  0  0  0  0  0
   -0.9615   -2.2530    0.4877 C   0  0  0  0  0  0  0  0  0  0  0  0
    1.0462   -0.6899   -1.2002 H   0  0  0  0  0  0  0  0  0  0  0  0
    2.4091    0.1840    0.7207 H   0  0  0  0  0  0  0  0  0  0  0  0
    1.0488   -0.0798    1.8696 H   0  0  0  0  0  0  0  0  0  0  0  0
   -1.0661    1.3367    1.6000 H   0  0  0  0  0  0  0  0  0  0  0  0
   -1.4764    2.2109    0.1162 H   0  0  0  0  0  0  0  0  0  0  0  0
    0.6588    3.1556   -0.3261 H   0  0  0  0  0  0  0  0  0  0  0  0
   -2.1210    0.2180   -1.0456 H   0  0  0  0  0  0  0  0  0  0  0  0
   -2.6834   -0.1486    0.6046 H   0  0  0  0  0  0  0  0  0  0  0  0
    2.9794    1.4140   -1.2490 H   0  0  0  0  0  0  0  0  0  0  0  0
    2.8687    3.1782   -1.3470 H   0  0  0  0  0  0  0  0  0  0  0  0
    2.9221    2.3938    0.2308 H   0  0  0  0  0  0  0  0  0  0  0  0
   -0.6183    2.2584   -2.2441 H   0  0  0  0  0  0  0  0  0  0  0  0
    0.8540    3.0755   -2.7779 H   0  0  0  0  0  0  0  0  0  0  0  0
    0.7812    1.3049   -2.7574 H   0  0  0  0  0  0  0  0  0  0  0  0
   -1.9498   -2.5767    0.8077 H   0  0  0  0  0  0  0  0  0  0  0  0
   -0.1421   -2.9529    0.6144 H   0  0  0  0  0  0  0  0  0  0  0  0
  1  2  1  0  0  0  0
  1  3  1  0  0  0  0
  1  4  1  0  0  0  0
  1  5  1  0  0  0  0
  2  3  1  0  0  0  0
  2  6  1  0  0  0  0
  2 11  1  0  0  0  0
  3 12  1  0  0  0  0
  3 13  1  0  0  0  0
  4  7  1  0  0  0  0
  4 14  1  0  0  0  0
  4 15  1  0  0  0  0
  5  8  1  0  0  0  0
  5  9  1  0  0  0  0
  5 16  1  0  0  0  0
  6  7  1  0  0  0  0
  6 10  2  0  0  0  0
  7 17  1  0  0  0  0
  7 18  1  0  0  0  0
  8 19  1  0  0  0  0
  8 20  1  0  0  0  0
  8 21  1  0  0  0  0
  9 22  1  0  0  0  0
  9 23  1  0  0  0  0
  9 24  1  0  0  0  0
 10 25  1  0  0  0  0
 10 26  1  0  0  0  0
M  END
> <PUBCHEM_COMPOUND_CID>
18818

> <PUBCHEM_COMPOUND_CANONICALIZED>
1

> <PUBCHEM_CACTVS_COMPLEXITY>
179

> <PUBCHEM_CACTVS_HBOND_ACCEPTOR>
0

> <PUBCHEM_CACTVS_HBOND_DONOR>
0

> <PUBCHEM_CACTVS_ROTATABLE_BOND>
1

> <PUBCHEM_CACTVS_SUBSKEYS>
AAADceBwAAAAAAAAAAAAAAAAGAAAAYAAAAAwAAAAAAAAAAAAAAAAGAAAAAAADwCAAAACAAAAAACAAgBCAAAAAAAgAAAAAAAAAAgAAAIAAQAAAAAAgAAAAAEAgMAPgAAAAAAAAAAAAAAAAAAAAAAACAAAAA==

> <PUBCHEM_IUPAC_OPENEYE_NAME>
1-isopropyl-4-methylene-bicyclo[3.1.0]hexane

> <PUBCHEM_IUPAC_CAS_NAME>
4-methylene-1-propan-2-ylbicyclo[3.1.0]hexane

> <PUBCHEM_IUPAC_NAME>
4-methylidene-1-propan-2-ylbicyclo[3.1.0]hexane

> <PUBCHEM_IUPAC_SYSTEMATIC_NAME>
4-methylidene-1-propan-2-yl-bicyclo[3.1.0]hexane

> <PUBCHEM_IUPAC_TRADITIONAL_NAME>
1-isopropyl-4-methylene-bicyclo[3.1.0]hexane

> <PUBCHEM_IUPAC_INCHI>
InChI=1S/C10H16/c1-7(2)10-5-4-8(3)9(10)6-10/h7,9H,3-6H2,1-2H3

> <PUBCHEM_IUPAC_INCHIKEY>
NDVASEGYNIMXJL-UHFFFAOYSA-N

> <PUBCHEM_XLOGP3_AA>
3.1

> <PUBCHEM_EXACT_MASS>
136.125

> <PUBCHEM_MOLECULAR_FORMULA>
C10H16

> <PUBCHEM_MOLECULAR_WEIGHT>
136.238

> <PUBCHEM_OPENEYE_CAN_SMILES>
CC(C)C12CCC(=C)C1C2

> <PUBCHEM_OPENEYE_ISO_SMILES>
CC(C)C12CCC(=C)C1C2

> <PUBCHEM_CACTVS_TPSA>
0

> <PUBCHEM_MONOISOTOPIC_WEIGHT>
136.125

> <PUBCHEM_TOTAL_CHARGE>
0

> <PUBCHEM_HEAVY_ATOM_COUNT>
10

> <PUBCHEM_ATOM_DEF_STEREO_COUNT>
0

> <PUBCHEM_ATOM_UDEF_STEREO_COUNT>
2

> <PUBCHEM_BOND_DEF_STEREO_COUNT>
0

> <PUBCHEM_BOND_UDEF_STEREO_COUNT>
0

> <PUBCHEM_ISOTOPIC_ATOM_COUNT>
0

> <PUBCHEM_COMPONENT_COUNT>
1

> <PUBCHEM_CACTVS_TAUTO_COUNT>
-1

> <PUBCHEM_COORDINATE_TYPE>
1 __ 5 __ 255

> <PUBCHEM_BONDANNOTATIONS>
1  2  3 __ 2  6  3

$$$$
7462_2
 OpenBabel02201912233D

 26 26  0  0  0  0  0  0  0  0999 V2000
    1.3317   -0.3955    0.0058 C   0  0  0  0  0  0  0  0  0  0  0  0
    2.7862   -0.8452   -0.0005 C   0  0  0  0  0  0  0  0  0  0  0  0
    0.2536   -1.4593    0.0384 C   0  0  0  0  0  0  0  0  0  0  0  0
   -1.2045   -0.9649   -0.0338 C   0  0  0  0  0  0  0  0  0  0  0  0
   -1.3987    0.5282   -0.0076 C   0  0  0  0  0  0  0  0  0  0  0  0
    1.0089    0.9103   -0.0065 C   0  0  0  0  0  0  0  0  0  0  0  0
    3.1356   -1.6751    1.2367 C   0  0  0  0  0  0  0  0  0  0  0  0
    3.1407   -1.6067   -1.2798 C   0  0  0  0  0  0  0  0  0  0  0  0
   -0.3555    1.3724    0.0085 C   0  0  0  0  0  0  0  0  0  0  0  0
   -2.8123    1.0291   -0.0091 C   0  0  0  0  0  0  0  0  0  0  0  0
    3.4307    0.0446    0.0251 H   0  0  0  0  0  0  0  0  0  0  0  0
    0.3631   -2.0444    0.9602 H   0  0  0  0  0  0  0  0  0  0  0  0
    0.4091   -2.1599   -0.7898 H   0  0  0  0  0  0  0  0  0  0  0  0
   -1.6608   -1.3580   -0.9513 H   0  0  0  0  0  0  0  0  0  0  0  0
   -1.7596   -1.4099    0.8019 H   0  0  0  0  0  0  0  0  0  0  0  0
    1.7784    1.6779   -0.0256 H   0  0  0  0  0  0  0  0  0  0  0  0
    2.9215   -1.0037   -2.1680 H   0  0  0  0  0  0  0  0  0  0  0  0
    4.2086   -1.8505   -1.2984 H   0  0  0  0  0  0  0  0  0  0  0  0
    2.5885   -2.5485   -1.3634 H   0  0  0  0  0  0  0  0  0  0  0  0
    2.5893   -2.6229    1.2632 H   0  0  0  0  0  0  0  0  0  0  0  0
    4.2058   -1.9127    1.2496 H   0  0  0  0  0  0  0  0  0  0  0  0
    2.9075   -1.1231    2.1553 H   0  0  0  0  0  0  0  0  0  0  0  0
   -0.5097    2.4481    0.0251 H   0  0  0  0  0  0  0  0  0  0  0  0
   -3.0072    1.6435    0.8760 H   0  0  0  0  0  0  0  0  0  0  0  0
   -3.0098    1.6224   -0.9076 H   0  0  0  0  0  0  0  0  0  0  0  0
   -3.5273    0.1996    0.0017 H   0  0  0  0  0  0  0  0  0  0  0  0
  1  2  1  0  0  0  0
  1  3  1  0  0  0  0
  1  6  2  0  0  0  0
  2  7  1  0  0  0  0
  2  8  1  0  0  0  0
  2 11  1  0  0  0  0
  3  4  1  0  0  0  0
  3 12  1  0  0  0  0
  3 13  1  0  0  0  0
  4  5  1  0  0  0  0
  4 14  1  0  0  0  0
  4 15  1  0  0  0  0
  5  9  2  0  0  0  0
  5 10  1  0  0  0  0
  6  9  1  0  0  0  0
  6 16  1  0  0  0  0
  7 20  1  0  0  0  0
  7 21  1  0  0  0  0
  7 22  1  0  0  0  0
  8 17  1  0  0  0  0
  8 18  1  0  0  0  0
  8 19  1  0  0  0  0
  9 23  1  0  0  0  0
 10 24  1  0  0  0  0
 10 25  1  0  0  0  0
 10 26  1  0  0  0  0
M  END
> <PUBCHEM_COMPOUND_CID>
7462

> <PUBCHEM_COMPOUND_CANONICALIZED>
1

> <PUBCHEM_CACTVS_COMPLEXITY>
171

> <PUBCHEM_CACTVS_HBOND_ACCEPTOR>
0

> <PUBCHEM_CACTVS_HBOND_DONOR>
0

> <PUBCHEM_CACTVS_ROTATABLE_BOND>
1

> <PUBCHEM_CACTVS_SUBSKEYS>
AAADceBwAAAAAAAAAAAAAAAAAAAAAAAAAAAgAAAAAAAAAAAAAAAAGAAAAAAADQCAAAACAAAAAACAAiBCAAAAAAAgAAAACAAAAAgIAAIAAQAAAAAAgAAIgAMAgEAMAAAAAAAAAAAAAAAAAAAAAAAAAAAAAA==

> <PUBCHEM_IUPAC_OPENEYE_NAME>
1-isopropyl-4-methyl-cyclohexa-1,3-diene

> <PUBCHEM_IUPAC_CAS_NAME>
1-methyl-4-propan-2-ylcyclohexa-1,3-diene

> <PUBCHEM_IUPAC_NAME>
1-methyl-4-propan-2-ylcyclohexa-1,3-diene

> <PUBCHEM_IUPAC_SYSTEMATIC_NAME>
1-methyl-4-propan-2-yl-cyclohexa-1,3-diene

> <PUBCHEM_IUPAC_TRADITIONAL_NAME>
1-isopropyl-4-methyl-cyclohexa-1,3-diene

> <PUBCHEM_IUPAC_INCHI>
InChI=1S/C10H16/c1-8(2)10-6-4-9(3)5-7-10/h4,6,8H,5,7H2,1-3H3

> <PUBCHEM_IUPAC_INCHIKEY>
YHQGMYUVUMAZJR-UHFFFAOYSA-N

> <PUBCHEM_XLOGP3_AA>
2.8

> <PUBCHEM_EXACT_MASS>
136.125

> <PUBCHEM_MOLECULAR_FORMULA>
C10H16

> <PUBCHEM_MOLECULAR_WEIGHT>
136.238

> <PUBCHEM_OPENEYE_CAN_SMILES>
CC1=CC=C(CC1)C(C)C

> <PUBCHEM_OPENEYE_ISO_SMILES>
CC1=CC=C(CC1)C(C)C

> <PUBCHEM_CACTVS_TPSA>
0

> <PUBCHEM_MONOISOTOPIC_WEIGHT>
136.125

> <PUBCHEM_TOTAL_CHARGE>
0

> <PUBCHEM_HEAVY_ATOM_COUNT>
10

> <PUBCHEM_ATOM_DEF_STEREO_COUNT>
0

> <PUBCHEM_ATOM_UDEF_STEREO_COUNT>
0

> <PUBCHEM_BOND_DEF_STEREO_COUNT>
0

> <PUBCHEM_BOND_UDEF_STEREO_COUNT>
0

> <PUBCHEM_ISOTOPIC_ATOM_COUNT>
0

> <PUBCHEM_COMPONENT_COUNT>
1

> <PUBCHEM_CACTVS_TAUTO_COUNT>
-1

> <PUBCHEM_COORDINATE_TYPE>
1 __ 5 __ 255

$$$$
11230
 OpenBabel02201912233D

 29 29  0  0  1  0  0  0  0  0999 V2000
    0.7116   -0.2440   -0.2159 O   0  0  0  0  0  0  0  0  0  0  0  0
    0.3606    0.9263   -0.9985 C   0  0  3  0  0  0  0  0  0  0  0  0
   -0.8041    0.4424   -1.9237 C   0  0  0  0  0  0  0  0  0  0  0  0
    1.6420    1.2650   -1.8004 C   0  0  0  0  0  0  0  0  0  0  0  0
   -0.0620    2.0253    0.0082 C   0  0  0  0  0  0  0  0  0  0  0  0
    1.9129    2.7344   -2.1321 C   0  0  0  0  0  0  0  0  0  0  0  0
    1.3662    3.7338   -1.1607 C   0  0  0  0  0  0  0  0  0  0  0  0
    0.4919    3.3980   -0.2001 C   0  0  0  0  0  0  0  0  0  0  0  0
   -1.9945   -0.1482   -1.1436 C   0  0  0  0  0  0  0  0  0  0  0  0
   -1.3083    1.5051   -2.8994 C   0  0  0  0  0  0  0  0  0  0  0  0
    1.8305    5.1571   -1.3027 C   0  0  0  0  0  0  0  0  0  0  0  0
   -0.4163   -0.3943   -2.5232 H   0  0  0  0  0  0  0  0  0  0  0  0
    2.5175    0.8879   -1.2543 H   0  0  0  0  0  0  0  0  0  0  0  0
    1.6564    0.6937   -2.7382 H   0  0  0  0  0  0  0  0  0  0  0  0
   -1.1518    2.1372    0.0251 H   0  0  0  0  0  0  0  0  0  0  0  0
    0.2065    1.7266    1.0276 H   0  0  0  0  0  0  0  0  0  0  0  0
    3.0041    2.8571   -2.1836 H   0  0  0  0  0  0  0  0  0  0  0  0
    1.5327    2.9705   -3.1320 H   0  0  0  0  0  0  0  0  0  0  0  0
    0.1210    4.1684    0.4748 H   0  0  0  0  0  0  0  0  0  0  0  0
   -0.5151    1.8287   -3.5782 H   0  0  0  0  0  0  0  0  0  0  0  0
   -2.1152    1.1019   -3.5225 H   0  0  0  0  0  0  0  0  0  0  0  0
   -1.6994    2.3827   -2.3773 H   0  0  0  0  0  0  0  0  0  0  0  0
   -2.5152    0.6051   -0.5442 H   0  0  0  0  0  0  0  0  0  0  0  0
   -2.7297   -0.5751   -1.8350 H   0  0  0  0  0  0  0  0  0  0  0  0
   -1.6775   -0.9548   -0.4742 H   0  0  0  0  0  0  0  0  0  0  0  0
    1.4329    0.0090    0.3893 H   0  0  0  0  0  0  0  0  0  0  0  0
    1.0104    5.7898   -1.6573 H   0  0  0  0  0  0  0  0  0  0  0  0
    2.1920    5.5474   -0.3454 H   0  0  0  0  0  0  0  0  0  0  0  0
    2.6515    5.2395   -2.0226 H   0  0  0  0  0  0  0  0  0  0  0  0
  1  2  1  0  0  0  0
  1 26  1  0  0  0  0
  2  3  1  0  0  0  0
  2  4  1  0  0  0  0
  2  5  1  0  0  0  0
  3  9  1  0  0  0  0
  3 10  1  0  0  0  0
  3 12  1  0  0  0  0
  4  6  1  0  0  0  0
  4 13  1  0  0  0  0
  4 14  1  0  0  0  0
  5  8  1  0  0  0  0
  5 15  1  0  0  0  0
  5 16  1  0  0  0  0
  6  7  1  0  0  0  0
  6 17  1  0  0  0  0
  6 18  1  0  0  0  0
  7  8  2  0  0  0  0
  7 11  1  0  0  0  0
  8 19  1  0  0  0  0
  9 23  1  0  0  0  0
  9 24  1  0  0  0  0
  9 25  1  0  0  0  0
 10 20  1  0  0  0  0
 10 21  1  0  0  0  0
 10 22  1  0  0  0  0
 11 27  1  0  0  0  0
 11 28  1  0  0  0  0
 11 29  1  0  0  0  0
M  END
> <PUBCHEM_COMPOUND_CID>
11230

> <PUBCHEM_COMPOUND_CANONICALIZED>
1

> <PUBCHEM_CACTVS_COMPLEXITY>
170

> <PUBCHEM_CACTVS_HBOND_ACCEPTOR>
1

> <PUBCHEM_CACTVS_HBOND_DONOR>
1

> <PUBCHEM_CACTVS_ROTATABLE_BOND>
1

> <PUBCHEM_CACTVS_SUBSKEYS>
AAADceBwIAAAAAAAAAAAAAAAAAAAAAAAAAAgAAAAAAAAAAAAAAAAGgAACAAADUSAgAACAAAAAgCAAiBCAAAAAAAgAAAACAAAAAgAAAIAAQAAQAAEwAAIAAOAgEAOgAAAAAAAAAAAAAAAAAAAAAAAAAAAAA==

> <PUBCHEM_IUPAC_OPENEYE_NAME>
1-isopropyl-4-methyl-cyclohex-3-en-1-ol

> <PUBCHEM_IUPAC_CAS_NAME>
4-methyl-1-propan-2-yl-1-cyclohex-3-enol

> <PUBCHEM_IUPAC_NAME>
4-methyl-1-propan-2-ylcyclohex-3-en-1-ol

> <PUBCHEM_IUPAC_SYSTEMATIC_NAME>
4-methyl-1-propan-2-yl-cyclohex-3-en-1-ol

> <PUBCHEM_IUPAC_TRADITIONAL_NAME>
1-isopropyl-4-methyl-cyclohex-3-en-1-ol

> <PUBCHEM_IUPAC_INCHI>
InChI=1S/C10H18O/c1-8(2)10(11)6-4-9(3)5-7-10/h4,8,11H,5-7H2,1-3H3

> <PUBCHEM_IUPAC_INCHIKEY>
WRYLYDPHFGVWKC-UHFFFAOYSA-N

> <PUBCHEM_XLOGP3_AA>
2.2

> <PUBCHEM_EXACT_MASS>
154.136

> <PUBCHEM_MOLECULAR_FORMULA>
C10H18O

> <PUBCHEM_MOLECULAR_WEIGHT>
154.253

> <PUBCHEM_OPENEYE_CAN_SMILES>
CC1=CCC(CC1)(C(C)C)O

> <PUBCHEM_OPENEYE_ISO_SMILES>
CC1=CCC(CC1)(C(C)C)O

> <PUBCHEM_CACTVS_TPSA>
20.2

> <PUBCHEM_MONOISOTOPIC_WEIGHT>
154.136

> <PUBCHEM_TOTAL_CHARGE>
0

> <PUBCHEM_HEAVY_ATOM_COUNT>
11

> <PUBCHEM_ATOM_DEF_STEREO_COUNT>
0

> <PUBCHEM_ATOM_UDEF_STEREO_COUNT>
1

> <PUBCHEM_BOND_DEF_STEREO_COUNT>
0

> <PUBCHEM_BOND_UDEF_STEREO_COUNT>
0

> <PUBCHEM_ISOTOPIC_ATOM_COUNT>
0

> <PUBCHEM_COMPONENT_COUNT>
1

> <PUBCHEM_CACTVS_TAUTO_COUNT>
-1

> <PUBCHEM_COORDINATE_TYPE>
1 __ 5 __ 255

> <PUBCHEM_BONDANNOTATIONS>
2  1  3

$$$$
11463
 OpenBabel02201912233D

 26 26  0  0  0  0  0  0  0  0999 V2000
    0.3300    1.4385    0.0373 C   0  0  0  0  0  0  0  0  0  0  0  0
    1.3953    0.3588    0.0067 C   0  0  0  0  0  0  0  0  0  0  0  0
   -1.1537    1.0452    0.0218 C   0  0  0  0  0  0  0  0  0  0  0  0
    0.9612   -1.0900   -0.0090 C   0  0  0  0  0  0  0  0  0  0  0  0
   -1.4717   -0.4173    0.0101 C   0  0  0  0  0  0  0  0  0  0  0  0
   -0.5110   -1.3505   -0.0036 C   0  0  0  0  0  0  0  0  0  0  0  0
    2.7127    0.6986   -0.0006 C   0  0  0  0  0  0  0  0  0  0  0  0
   -2.9310   -0.7728    0.0121 C   0  0  0  0  0  0  0  0  0  0  0  0
    3.8494   -0.2944   -0.0178 C   0  0  0  0  0  0  0  0  0  0  0  0
    3.1749    2.1370    0.0114 C   0  0  0  0  0  0  0  0  0  0  0  0
    0.4898    2.0502    0.9357 H   0  0  0  0  0  0  0  0  0  0  0  0
    0.4921    2.1087   -0.8179 H   0  0  0  0  0  0  0  0  0  0  0  0
   -1.6372    1.4997    0.8969 H   0  0  0  0  0  0  0  0  0  0  0  0
   -1.6241    1.5104   -0.8545 H   0  0  0  0  0  0  0  0  0  0  0  0
    1.3699   -1.5739   -0.9052 H   0  0  0  0  0  0  0  0  0  0  0  0
    1.3805   -1.5972    0.8689 H   0  0  0  0  0  0  0  0  0  0  0  0
   -0.7906   -2.4024   -0.0144 H   0  0  0  0  0  0  0  0  0  0  0  0
   -3.4188   -0.3685    0.9051 H   0  0  0  0  0  0  0  0  0  0  0  0
   -3.4244   -0.3565   -0.8722 H   0  0  0  0  0  0  0  0  0  0  0  0
   -3.0926   -1.8558    0.0055 H   0  0  0  0  0  0  0  0  0  0  0  0
    2.8273    2.6644   -0.8827 H   0  0  0  0  0  0  0  0  0  0  0  0
    2.8143    2.6564    0.9050 H   0  0  0  0  0  0  0  0  0  0  0  0
    4.2681    2.2060    0.0201 H   0  0  0  0  0  0  0  0  0  0  0  0
    4.4684   -0.1393   -0.9079 H   0  0  0  0  0  0  0  0  0  0  0  0
    4.4780   -0.1570    0.8687 H   0  0  0  0  0  0  0  0  0  0  0  0
    3.5253   -1.3375   -0.0256 H   0  0  0  0  0  0  0  0  0  0  0  0
  1  2  1  0  0  0  0
  1  3  1  0  0  0  0
  1 11  1  0  0  0  0
  1 12  1  0  0  0  0
  2  4  1  0  0  0  0
  2  7  2  0  0  0  0
  3  5  1  0  0  0  0
  3 13  1  0  0  0  0
  3 14  1  0  0  0  0
  4  6  1  0  0  0  0
  4 15  1  0  0  0  0
  4 16  1  0  0  0  0
  5  6  2  0  0  0  0
  5  8  1  0  0  0  0
  6 17  1  0  0  0  0
  7  9  1  0  0  0  0
  7 10  1  0  0  0  0
  8 18  1  0  0  0  0
  8 19  1  0  0  0  0
  8 20  1  0  0  0  0
  9 24  1  0  0  0  0
  9 25  1  0  0  0  0
  9 26  1  0  0  0  0
 10 21  1  0  0  0  0
 10 22  1  0  0  0  0
 10 23  1  0  0  0  0
M  END
> <PUBCHEM_COMPOUND_CID>
11463

> <PUBCHEM_COMPOUND_CANONICALIZED>
1

> <PUBCHEM_CACTVS_COMPLEXITY>
178

> <PUBCHEM_CACTVS_HBOND_ACCEPTOR>
0

> <PUBCHEM_CACTVS_HBOND_DONOR>
0

> <PUBCHEM_CACTVS_ROTATABLE_BOND>
0

> <PUBCHEM_CACTVS_SUBSKEYS>
AAADceBwAAAAAAAAAAAAAAAAAAAAAAAAAAAgAAAAAAAAAAAAAAAAGAAAAAAADACAAAACAAAAAACAAiBCAAAAAAAgAAAACAAAAAgAAAIAAQAAAAAAgAAIAAMAgAAAAAAAAAAAAAAAAAAAAAAAAAAAAAAAAA==

> <PUBCHEM_IUPAC_OPENEYE_NAME>
4-isopropylidene-1-methyl-cyclohexene

> <PUBCHEM_IUPAC_CAS_NAME>
1-methyl-4-propan-2-ylidenecyclohexene

> <PUBCHEM_IUPAC_NAME>
1-methyl-4-propan-2-ylidenecyclohexene

> <PUBCHEM_IUPAC_SYSTEMATIC_NAME>
1-methyl-4-propan-2-ylidene-cyclohexene

> <PUBCHEM_IUPAC_TRADITIONAL_NAME>
4-isopropylidene-1-methyl-cyclohexene

> <PUBCHEM_IUPAC_INCHI>
InChI=1S/C10H16/c1-8(2)10-6-4-9(3)5-7-10/h4H,5-7H2,1-3H3

> <PUBCHEM_IUPAC_INCHIKEY>
MOYAFQVGZZPNRA-UHFFFAOYSA-N

> <PUBCHEM_XLOGP3_AA>
2.8

> <PUBCHEM_EXACT_MASS>
136.125

> <PUBCHEM_MOLECULAR_FORMULA>
C10H16

> <PUBCHEM_MOLECULAR_WEIGHT>
136.238

> <PUBCHEM_OPENEYE_CAN_SMILES>
CC1=CCC(=C(C)C)CC1

> <PUBCHEM_OPENEYE_ISO_SMILES>
CC1=CCC(=C(C)C)CC1

> <PUBCHEM_CACTVS_TPSA>
0

> <PUBCHEM_MONOISOTOPIC_WEIGHT>
136.125

> <PUBCHEM_TOTAL_CHARGE>
0

> <PUBCHEM_HEAVY_ATOM_COUNT>
10

> <PUBCHEM_ATOM_DEF_STEREO_COUNT>
0

> <PUBCHEM_ATOM_UDEF_STEREO_COUNT>
0

> <PUBCHEM_BOND_DEF_STEREO_COUNT>
0

> <PUBCHEM_BOND_UDEF_STEREO_COUNT>
0

> <PUBCHEM_ISOTOPIC_ATOM_COUNT>
0

> <PUBCHEM_COMPONENT_COUNT>
1

> <PUBCHEM_CACTVS_TAUTO_COUNT>
-1

> <PUBCHEM_COORDINATE_TYPE>
1 __ 5 __ 255

$$$$
524198
 OpenBabel02201912233D

 24 25  0  0  1  0  0  0  0  0999 V2000
    0.5783   -0.9549   -0.1366 C   0  0  3  0  0  0  0  0  0  0  0  0
    0.4004    0.4892    0.4401 C   0  0  3  0  0  0  0  0  0  0  0  0
    1.2172    0.2708   -0.7835 C   0  0  0  0  0  0  0  0  0  0  0  0
    1.6012   -2.0443    0.1917 C   0  0  0  0  0  0  0  0  0  0  0  0
   -0.8478   -1.3174   -0.4069 C   0  0  0  0  0  0  0  0  0  0  0  0
   -1.0291    0.8649    0.2285 C   0  0  0  0  0  0  0  0  0  0  0  0
   -1.7304   -0.3295   -0.2018 C   0  0  0  0  0  0  0  0  0  0  0  0
    1.7826   -2.3260    1.6769 C   0  0  0  0  0  0  0  0  0  0  0  0
    1.2908   -3.3463   -0.5632 C   0  0  0  0  0  0  0  0  0  0  0  0
   -1.6056    2.0677    0.2585 C   0  0  0  0  0  0  0  0  0  0  0  0
    0.8530    0.7397    1.3926 H   0  0  0  0  0  0  0  0  0  0  0  0
    0.8458    0.5907   -1.7463 H   0  0  0  0  0  0  0  0  0  0  0  0
    2.2838    0.4429   -0.6643 H   0  0  0  0  0  0  0  0  0  0  0  0
    2.5822   -1.7203   -0.1817 H   0  0  0  0  0  0  0  0  0  0  0  0
   -1.1501   -2.2993   -0.7424 H   0  0  0  0  0  0  0  0  0  0  0  0
   -2.7960   -0.3966   -0.3640 H   0  0  0  0  0  0  0  0  0  0  0  0
    0.8369   -2.5862    2.1628 H   0  0  0  0  0  0  0  0  0  0  0  0
    2.4787   -3.1662    1.8216 H   0  0  0  0  0  0  0  0  0  0  0  0
    2.2098   -1.4625    2.1911 H   0  0  0  0  0  0  0  0  0  0  0  0
    1.0926   -3.1451   -1.6236 H   0  0  0  0  0  0  0  0  0  0  0  0
    2.1308   -4.0453   -0.5082 H   0  0  0  0  0  0  0  0  0  0  0  0
    0.4135   -3.8537   -0.1456 H   0  0  0  0  0  0  0  0  0  0  0  0
   -2.6539    2.1969   -0.0098 H   0  0  0  0  0  0  0  0  0  0  0  0
   -1.0418    2.9620    0.4924 H   0  0  0  0  0  0  0  0  0  0  0  0
  1  2  1  0  0  0  0
  1  3  1  0  0  0  0
  1  4  1  0  0  0  0
  1  5  1  0  0  0  0
  2  3  1  0  0  0  0
  2  6  1  0  0  0  0
  2 11  1  0  0  0  0
  3 12  1  0  0  0  0
  3 13  1  0  0  0  0
  4  8  1  0  0  0  0
  4  9  1  0  0  0  0
  4 14  1  0  0  0  0
  5  7  2  0  0  0  0
  5 15  1  0  0  0  0
  6  7  1  0  0  0  0
  6 10  2  0  0  0  0
  7 16  1  0  0  0  0
  8 17  1  0  0  0  0
  8 18  1  0  0  0  0
  8 19  1  0  0  0  0
  9 20  1  0  0  0  0
  9 21  1  0  0  0  0
  9 22  1  0  0  0  0
 10 23  1  0  0  0  0
 10 24  1  0  0  0  0
M  END
> <PUBCHEM_COMPOUND_CID>
524198

> <PUBCHEM_COMPOUND_CANONICALIZED>
1

> <PUBCHEM_CACTVS_COMPLEXITY>
210

> <PUBCHEM_CACTVS_HBOND_ACCEPTOR>
0

> <PUBCHEM_CACTVS_HBOND_DONOR>
0

> <PUBCHEM_CACTVS_ROTATABLE_BOND>
1

> <PUBCHEM_CACTVS_SUBSKEYS>
AAADccBwAAAAAAAAAAAAAAAAGAAAAQAAAAAgAAAAAAAAAAAAAAAAGAAAAAAADwCAAAACAAAAAACAAiBCAAAAAAAgAAAICAAAAAgIAAIAAQAAAAAAgAAIgAMAgEAPgAAAAAAAAAAAAAAAAAAAAAAAAAAAAA==

> <PUBCHEM_IUPAC_OPENEYE_NAME>
1-isopropyl-4-methylene-bicyclo[3.1.0]hex-2-ene

> <PUBCHEM_IUPAC_CAS_NAME>
4-methylene-1-propan-2-ylbicyclo[3.1.0]hex-2-ene

> <PUBCHEM_IUPAC_NAME>
4-methylidene-1-propan-2-ylbicyclo[3.1.0]hex-2-ene

> <PUBCHEM_IUPAC_SYSTEMATIC_NAME>
4-methylidene-1-propan-2-yl-bicyclo[3.1.0]hex-2-ene

> <PUBCHEM_IUPAC_TRADITIONAL_NAME>
1-isopropyl-4-methylene-bicyclo[3.1.0]hex-2-ene

> <PUBCHEM_IUPAC_INCHI>
InChI=1S/C10H14/c1-7(2)10-5-4-8(3)9(10)6-10/h4-5,7,9H,3,6H2,1-2H3

> <PUBCHEM_IUPAC_INCHIKEY>
LBVRQJWOZIMWNY-UHFFFAOYSA-N

> <PUBCHEM_XLOGP3_AA>
3

> <PUBCHEM_EXACT_MASS>
134.11

> <PUBCHEM_MOLECULAR_FORMULA>
C10H14

> <PUBCHEM_MOLECULAR_WEIGHT>
134.222

> <PUBCHEM_OPENEYE_CAN_SMILES>
CC(C)C12CC1C(=C)C=C2

> <PUBCHEM_OPENEYE_ISO_SMILES>
CC(C)C12CC1C(=C)C=C2

> <PUBCHEM_CACTVS_TPSA>
0

> <PUBCHEM_MONOISOTOPIC_WEIGHT>
134.11

> <PUBCHEM_TOTAL_CHARGE>
0

> <PUBCHEM_HEAVY_ATOM_COUNT>
10

> <PUBCHEM_ATOM_DEF_STEREO_COUNT>
0

> <PUBCHEM_ATOM_UDEF_STEREO_COUNT>
2

> <PUBCHEM_BOND_DEF_STEREO_COUNT>
0

> <PUBCHEM_BOND_UDEF_STEREO_COUNT>
0

> <PUBCHEM_ISOTOPIC_ATOM_COUNT>
0

> <PUBCHEM_COMPONENT_COUNT>
1

> <PUBCHEM_CACTVS_TAUTO_COUNT>
-1

> <PUBCHEM_COORDINATE_TYPE>
1 __ 5 __ 255

> <PUBCHEM_BONDANNOTATIONS>
1  2  3 __ 2  3  3

$$$$
12304609
 OpenBabel02201912233D

 29 30  0  0  1  0  0  0  0  0999 V2000
    1.7208   -0.4276   -1.2066 O   0  0  0  0  0  0  0  0  0  0  0  0
   -1.0268    0.2378   -2.4606 C   0  0  2  0  0  0  0  0  0  0  0  0
   -0.1828    1.5003   -2.5467 C   0  0  1  0  0  0  0  0  0  0  0  0
   -1.6711    1.6134   -2.5727 C   0  0  0  0  0  0  0  0  0  0  0  0
    0.5130    1.7088   -1.2102 C   0  0  1  0  0  0  0  0  0  0  0  0
   -0.7116   -0.3793   -1.0964 C   0  0  0  0  0  0  0  0  0  0  0  0
    0.6093    0.2800   -0.6525 C   0  0  1  0  0  0  0  0  0  0  0  0
   -1.3708   -0.7023   -3.6106 C   0  0  0  0  0  0  0  0  0  0  0  0
    1.8256    2.4597   -1.2752 C   0  0  0  0  0  0  0  0  0  0  0  0
   -0.1502   -1.3546   -4.2481 C   0  0  0  0  0  0  0  0  0  0  0  0
   -2.3834   -1.7706   -3.1708 C   0  0  0  0  0  0  0  0  0  0  0  0
    0.4143    1.6714   -3.4304 H   0  0  0  0  0  0  0  0  0  0  0  0
   -2.1126    1.9282   -3.5143 H   0  0  0  0  0  0  0  0  0  0  0  0
   -2.1961    2.0077   -1.7128 H   0  0  0  0  0  0  0  0  0  0  0  0
   -0.1605    2.2797   -0.5553 H   0  0  0  0  0  0  0  0  0  0  0  0
   -1.5211   -0.1410   -0.3981 H   0  0  0  0  0  0  0  0  0  0  0  0
   -0.5859   -1.4636   -1.1417 H   0  0  0  0  0  0  0  0  0  0  0  0
    0.7228    0.2660    0.4339 H   0  0  0  0  0  0  0  0  0  0  0  0
   -1.8646   -0.1248   -4.4049 H   0  0  0  0  0  0  0  0  0  0  0  0
    1.6461    3.5091   -1.5468 H   0  0  0  0  0  0  0  0  0  0  0  0
    2.3226    2.4540   -0.3009 H   0  0  0  0  0  0  0  0  0  0  0  0
    2.5117    2.0430   -2.0198 H   0  0  0  0  0  0  0  0  0  0  0  0
   -3.2494   -1.3031   -2.6875 H   0  0  0  0  0  0  0  0  0  0  0  0
   -2.7423   -2.3445   -4.0270 H   0  0  0  0  0  0  0  0  0  0  0  0
   -1.9498   -2.4832   -2.4602 H   0  0  0  0  0  0  0  0  0  0  0  0
    0.4308   -1.9235   -3.5203 H   0  0  0  0  0  0  0  0  0  0  0  0
   -0.4538   -2.0397   -5.0484 H   0  0  0  0  0  0  0  0  0  0  0  0
    0.5038   -0.5984   -4.6944 H   0  0  0  0  0  0  0  0  0  0  0  0
    1.5786   -0.4793   -2.1694 H   0  0  0  0  0  0  0  0  0  0  0  0
  1 29  1  0  0  0  0
  2  3  1  6  0  0  0
  2  4  1  0  0  0  0
  2  6  1  0  0  0  0
  2  8  1  0  0  0  0
  3  4  1  0  0  0  0
  3  5  1  1  0  0  0
  3 12  1  0  0  0  0
  4 13  1  0  0  0  0
  4 14  1  0  0  0  0
  5  7  1  1  0  0  0
  5  9  1  0  0  0  0
  5 15  1  0  0  0  0
  6  7  1  0  0  0  0
  6 16  1  0  0  0  0
  6 17  1  0  0  0  0
  7 18  1  1  0  0  0
  7  1  1  0  0  0  0
  8 10  1  0  0  0  0
  8 11  1  0  0  0  0
  8 19  1  0  0  0  0
  9 20  1  0  0  0  0
  9 21  1  0  0  0  0
  9 22  1  0  0  0  0
 10 26  1  0  0  0  0
 10 27  1  0  0  0  0
 10 28  1  0  0  0  0
 11 23  1  0  0  0  0
 11 24  1  0  0  0  0
 11 25  1  0  0  0  0
M  END
> <PUBCHEM_COMPOUND_CID>
12304609

> <PUBCHEM_COMPOUND_CANONICALIZED>
1

> <PUBCHEM_CACTVS_COMPLEXITY>
176

> <PUBCHEM_CACTVS_HBOND_ACCEPTOR>
1

> <PUBCHEM_CACTVS_HBOND_DONOR>
1

> <PUBCHEM_CACTVS_ROTATABLE_BOND>
1

> <PUBCHEM_CACTVS_SUBSKEYS>
AAADceBwIAAAAAAAAAAAAAAAGAAAAYAAAAAwAAAAAAAAAAAAAAAAGgAACAAADxSggAICAAAAAgAAAAAAAAAAAAAAAAAAAAAAAAAAEAIAAAAAQAAEAAAAAAGAwPAPgAAAAAAAAACAAAIAABAAAYAADAAAAA==

> <PUBCHEM_IUPAC_OPENEYE_NAME>
(1~{R},3~{R},4~{S},5~{S})-1-isopropyl-4-methyl-bicyclo[3.1.0]hexan-3-ol

> <PUBCHEM_IUPAC_CAS_NAME>
(1~{R},3~{R},4~{S},5~{S})-4-methyl-1-propan-2-yl-3-bicyclo[3.1.0]hexanol

> <PUBCHEM_IUPAC_NAME>
(1~{R},3~{R},4~{S},5~{S})-4-methyl-1-propan-2-ylbicyclo[3.1.0]hexan-3-ol

> <PUBCHEM_IUPAC_SYSTEMATIC_NAME>
(1~{R},3~{R},4~{S},5~{S})-4-methyl-1-propan-2-yl-bicyclo[3.1.0]hexan-3-ol

> <PUBCHEM_IUPAC_TRADITIONAL_NAME>
(1~{R},3~{R},4~{S},5~{S})-1-isopropyl-4-methyl-bicyclo[3.1.0]hexan-3-ol

> <PUBCHEM_IUPAC_INCHI>
InChI=1S/C10H18O/c1-6(2)10-4-8(10)7(3)9(11)5-10/h6-9,11H,4-5H2,1-3H3/t7-,8-,9+,10+/m0/s1

> <PUBCHEM_IUPAC_INCHIKEY>
DZVXRFMREAADPP-AXTSPUMRSA-N

> <PUBCHEM_XLOGP3_AA>
2.6

> <PUBCHEM_EXACT_MASS>
154.136

> <PUBCHEM_MOLECULAR_FORMULA>
C10H18O

> <PUBCHEM_MOLECULAR_WEIGHT>
154.253

> <PUBCHEM_OPENEYE_CAN_SMILES>
CC1C2CC2(CC1O)C(C)C

> <PUBCHEM_OPENEYE_ISO_SMILES>
C[C@H]1[C@@H]2C[C@@]2(C[C@H]1O)C(C)C

> <PUBCHEM_CACTVS_TPSA>
20.2

> <PUBCHEM_MONOISOTOPIC_WEIGHT>
154.136

> <PUBCHEM_TOTAL_CHARGE>
0

> <PUBCHEM_HEAVY_ATOM_COUNT>
11

> <PUBCHEM_ATOM_DEF_STEREO_COUNT>
4

> <PUBCHEM_ATOM_UDEF_STEREO_COUNT>
0

> <PUBCHEM_BOND_DEF_STEREO_COUNT>
0

> <PUBCHEM_BOND_UDEF_STEREO_COUNT>
0

> <PUBCHEM_ISOTOPIC_ATOM_COUNT>
0

> <PUBCHEM_COMPONENT_COUNT>
1

> <PUBCHEM_CACTVS_TAUTO_COUNT>
-1

> <PUBCHEM_COORDINATE_TYPE>
1 __ 5 __ 255

> <PUBCHEM_BONDANNOTATIONS>
7  1  6 __ 2  8  6 __ 3  12  6 __ 5  9  6

$$$$
79035
 OpenBabel02201912233D

 26 28  0  0  1  0  0  0  0  0999 V2000
   -0.8040    0.8574    0.4621 C   0  0  3  0  0  0  0  0  0  0  0  0
   -0.8431   -0.6453    0.5153 C   0  0  3  0  0  0  0  0  0  0  0  0
   -0.8820    0.0482   -0.8029 C   0  0  3  0  0  0  0  0  0  0  0  0
    0.6488    1.2999    0.6519 C   0  0  0  0  0  0  0  0  0  0  0  0
    1.2677    0.0095   -0.0401 C   0  0  3  0  0  0  0  0  0  0  0  0
    0.5012   -0.0550   -1.4058 C   0  0  0  0  0  0  0  0  0  0  0  0
    0.5618   -1.1649    0.7178 C   0  0  0  0  0  0  0  0  0  0  0  0
   -1.9450    1.6695    0.9591 C   0  0  0  0  0  0  0  0  0  0  0  0
    1.0393    1.4569    2.1263 C   0  0  0  0  0  0  0  0  0  0  0  0
    0.9806    2.6044   -0.0835 C   0  0  0  0  0  0  0  0  0  0  0  0
   -1.7423    0.0288   -1.4449 H   0  0  0  0  0  0  0  0  0  0  0  0
   -1.6739   -1.2048    0.9015 H   0  0  0  0  0  0  0  0  0  0  0  0
    2.3554   -0.0410   -0.0976 H   0  0  0  0  0  0  0  0  0  0  0  0
    0.7134   -2.1295    0.2227 H   0  0  0  0  0  0  0  0  0  0  0  0
    0.8417   -1.2489    1.7692 H   0  0  0  0  0  0  0  0  0  0  0  0
    0.7353    0.7638   -2.0877 H   0  0  0  0  0  0  0  0  0  0  0  0
    0.6498   -1.0105   -1.9195 H   0  0  0  0  0  0  0  0  0  0  0  0
   -2.9032    1.2792    0.5995 H   0  0  0  0  0  0  0  0  0  0  0  0
   -1.9716    1.6633    2.0535 H   0  0  0  0  0  0  0  0  0  0  0  0
   -1.8624    2.7079    0.6254 H   0  0  0  0  0  0  0  0  0  0  0  0
    2.1247    1.5593    2.2308 H   0  0  0  0  0  0  0  0  0  0  0  0
    0.5752    2.3527    2.5557 H   0  0  0  0  0  0  0  0  0  0  0  0
    0.7137    0.6227    2.7530 H   0  0  0  0  0  0  0  0  0  0  0  0
    0.6068    2.6315   -1.1104 H   0  0  0  0  0  0  0  0  0  0  0  0
    0.5245    3.4629    0.4231 H   0  0  0  0  0  0  0  0  0  0  0  0
    2.0631    2.7688   -0.1104 H   0  0  0  0  0  0  0  0  0  0  0  0
  1  2  1  0  0  0  0
  1  3  1  0  0  0  0
  1  4  1  0  0  0  0
  1  8  1  0  0  0  0
  2  3  1  0  0  0  0
  2  7  1  0  0  0  0
  2 12  1  0  0  0  0
  3  6  1  0  0  0  0
  3 11  1  0  0  0  0
  4  5  1  0  0  0  0
  4  9  1  0  0  0  0
  4 10  1  0  0  0  0
  5  6  1  0  0  0  0
  5  7  1  0  0  0  0
  5 13  1  0  0  0  0
  6 16  1  0  0  0  0
  6 17  1  0  0  0  0
  7 14  1  0  0  0  0
  7 15  1  0  0  0  0
  8 18  1  0  0  0  0
  8 19  1  0  0  0  0
  8 20  1  0  0  0  0
  9 21  1  0  0  0  0
  9 22  1  0  0  0  0
  9 23  1  0  0  0  0
 10 24  1  0  0  0  0
 10 25  1  0  0  0  0
 10 26  1  0  0  0  0
M  END
> <PUBCHEM_COMPOUND_CID>
79035

> <PUBCHEM_COMPOUND_CANONICALIZED>
1

> <PUBCHEM_CACTVS_COMPLEXITY>
190

> <PUBCHEM_CACTVS_HBOND_ACCEPTOR>
0

> <PUBCHEM_CACTVS_HBOND_DONOR>
0

> <PUBCHEM_CACTVS_ROTATABLE_BOND>
0

> <PUBCHEM_CACTVS_SUBSKEYS>
AAADceBwAAAAAAAAAAAAAAAAGAAAAYMGAAAAAAAAAAAAAAAAAAAAGAAAAAAADwCAAAACAAAAAAAAAAAAAAAAAAAAAAAAAAAAAAAAAAIAAAAAAAAAAAAAAAEAgMAPgAAAAAAAAACAAAQAACAAAQAACAAAAA==

> <PUBCHEM_IUPAC_OPENEYE_NAME>
1,7,7-trimethyltricyclo[2.2.1.0^{2,6}]heptane

> <PUBCHEM_IUPAC_CAS_NAME>
1,7,7-trimethyltricyclo[2.2.1.0^{2,6}]heptane

> <PUBCHEM_IUPAC_NAME>
1,7,7-trimethyltricyclo[2.2.1.0^{2,6}]heptane

> <PUBCHEM_IUPAC_SYSTEMATIC_NAME>
1,7,7-trimethyltricyclo[2.2.1.0^{2,6}]heptane

> <PUBCHEM_IUPAC_TRADITIONAL_NAME>
1,7,7-trimethyltricyclo[2.2.1.0^{2,6}]heptane

> <PUBCHEM_IUPAC_INCHI>
InChI=1S/C10H16/c1-9(2)6-4-7-8(5-6)10(7,9)3/h6-8H,4-5H2,1-3H3

> <PUBCHEM_IUPAC_INCHIKEY>
RRBYUSWBLVXTQN-UHFFFAOYSA-N

> <PUBCHEM_XLOGP3_AA>
3.2

> <PUBCHEM_EXACT_MASS>
136.125

> <PUBCHEM_MOLECULAR_FORMULA>
C10H16

> <PUBCHEM_MOLECULAR_WEIGHT>
136.238

> <PUBCHEM_OPENEYE_CAN_SMILES>
CC1(C2CC3C1(C3C2)C)C

> <PUBCHEM_OPENEYE_ISO_SMILES>
CC1(C2CC3C1(C3C2)C)C

> <PUBCHEM_CACTVS_TPSA>
0

> <PUBCHEM_MONOISOTOPIC_WEIGHT>
136.125

> <PUBCHEM_TOTAL_CHARGE>
0

> <PUBCHEM_HEAVY_ATOM_COUNT>
10

> <PUBCHEM_ATOM_DEF_STEREO_COUNT>
0

> <PUBCHEM_ATOM_UDEF_STEREO_COUNT>
2

> <PUBCHEM_BOND_DEF_STEREO_COUNT>
0

> <PUBCHEM_BOND_UDEF_STEREO_COUNT>
0

> <PUBCHEM_ISOTOPIC_ATOM_COUNT>
0

> <PUBCHEM_COMPONENT_COUNT>
1

> <PUBCHEM_CACTVS_TAUTO_COUNT>
-1

> <PUBCHEM_COORDINATE_TYPE>
1 __ 5 __ 255

> <PUBCHEM_BONDANNOTATIONS>
2  1  3 __ 3  1  3

$$$$
29025
 OpenBabel02201912233D

 25 26  0  0  1  0  0  0  0  0999 V2000
    0.9857    0.1234   -0.1064 O   0  0  0  0  0  0  0  0  0  0  0  0
    4.2686   -1.1776    1.0741 C   0  0  0  0  0  0  0  0  0  0  0  0
    4.9437   -0.3112   -0.0841 C   0  0  3  0  0  0  0  0  0  0  0  0
    3.0817   -1.2900    0.0134 C   0  0  3  0  0  0  0  0  0  0  0  0
    4.2148   -1.2875   -1.0777 C   0  0  0  0  0  0  0  0  0  0  0  0
    4.3915    1.0989   -0.2112 C   0  0  0  0  0  0  0  0  0  0  0  0
    4.9768   -2.5020    1.4164 C   0  0  0  0  0  0  0  0  0  0  0  0
    3.9529   -0.4690    2.3984 C   0  0  0  0  0  0  0  0  0  0  0  0
    2.2085    0.0277   -0.1106 C   0  0  0  0  0  0  0  0  0  0  0  0
    3.0513    1.2577   -0.2472 C   0  0  0  0  0  0  0  0  0  0  0  0
    5.3633    2.2319   -0.2697 C   0  0  0  0  0  0  0  0  0  0  0  0
    6.0370   -0.3463   -0.1247 H   0  0  0  0  0  0  0  0  0  0  0  0
    2.4859   -2.2053    0.0641 H   0  0  0  0  0  0  0  0  0  0  0  0
    3.9408   -0.8757   -2.0555 H   0  0  0  0  0  0  0  0  0  0  0  0
    4.7076   -2.2462   -1.2644 H   0  0  0  0  0  0  0  0  0  0  0  0
    5.9145   -2.3073    1.9491 H   0  0  0  0  0  0  0  0  0  0  0  0
    4.3424   -3.1189    2.0633 H   0  0  0  0  0  0  0  0  0  0  0  0
    3.4936    0.5143    2.2773 H   0  0  0  0  0  0  0  0  0  0  0  0
    3.2624   -1.0709    2.9995 H   0  0  0  0  0  0  0  0  0  0  0  0
    4.8682   -0.3211    2.9828 H   0  0  0  0  0  0  0  0  0  0  0  0
    5.2251   -3.1075    0.5420 H   0  0  0  0  0  0  0  0  0  0  0  0
    2.5433    2.2092   -0.3297 H   0  0  0  0  0  0  0  0  0  0  0  0
    6.0306    2.2024    0.5978 H   0  0  0  0  0  0  0  0  0  0  0  0
    5.9704    2.1663   -1.1778 H   0  0  0  0  0  0  0  0  0  0  0  0
    4.8568    3.2026   -0.2679 H   0  0  0  0  0  0  0  0  0  0  0  0
  1  9  2  0  0  0  0
  2  3  1  0  0  0  0
  2  4  1  0  0  0  0
  2  7  1  0  0  0  0
  2  8  1  0  0  0  0
  3  5  1  0  0  0  0
  3  6  1  0  0  0  0
  3 12  1  0  0  0  0
  4  5  1  0  0  0  0
  4  9  1  0  0  0  0
  4 13  1  0  0  0  0
  5 14  1  0  0  0  0
  5 15  1  0  0  0  0
  6 10  2  0  0  0  0
  6 11  1  0  0  0  0
  7 16  1  0  0  0  0
  7 17  1  0  0  0  0
  7 21  1  0  0  0  0
  8 18  1  0  0  0  0
  8 19  1  0  0  0  0
  8 20  1  0  0  0  0
  9 10  1  0  0  0  0
 10 22  1  0  0  0  0
 11 23  1  0  0  0  0
 11 24  1  0  0  0  0
 11 25  1  0  0  0  0
M  END
> <PUBCHEM_COMPOUND_CID>
29025

> <PUBCHEM_COMPOUND_CANONICALIZED>
1

> <PUBCHEM_CACTVS_COMPLEXITY>
248

> <PUBCHEM_CACTVS_HBOND_ACCEPTOR>
1

> <PUBCHEM_CACTVS_HBOND_DONOR>
0

> <PUBCHEM_CACTVS_ROTATABLE_BOND>
0

> <PUBCHEM_CACTVS_SUBSKEYS>
AAADccBwIAAAAAAAAAAAAAAAAABgAAAAAAAgQAAAAAAAAAAAAAAAGgAAAAAADwSAgAACAAAAAACIAqBSAAAAAAAgAAAACAEAAEgAABIAAQAAAAAAgAAIAQMIiEAPgAAAAAAAAAAAAAAAAAAAAAAAAAAAAA==

> <PUBCHEM_IUPAC_OPENEYE_NAME>
4,6,6-trimethylbicyclo[3.1.1]hept-3-en-2-one

> <PUBCHEM_IUPAC_CAS_NAME>
4,6,6-trimethyl-2-bicyclo[3.1.1]hept-3-enone

> <PUBCHEM_IUPAC_NAME>
4,6,6-trimethylbicyclo[3.1.1]hept-3-en-2-one

> <PUBCHEM_IUPAC_SYSTEMATIC_NAME>
4,6,6-trimethylbicyclo[3.1.1]hept-3-en-2-one

> <PUBCHEM_IUPAC_TRADITIONAL_NAME>
4,6,6-trimethylbicyclo[3.1.1]hept-3-en-2-one

> <PUBCHEM_IUPAC_INCHI>
InChI=1S/C10H14O/c1-6-4-9(11)8-5-7(6)10(8,2)3/h4,7-8H,5H2,1-3H3

> <PUBCHEM_IUPAC_INCHIKEY>
DCSCXTJOXBUFGB-UHFFFAOYSA-N

> <PUBCHEM_XLOGP3_AA>
1.6

> <PUBCHEM_EXACT_MASS>
150.104

> <PUBCHEM_MOLECULAR_FORMULA>
C10H14O

> <PUBCHEM_MOLECULAR_WEIGHT>
150.221

> <PUBCHEM_OPENEYE_CAN_SMILES>
CC1=CC(=O)C2CC1C2(C)C

> <PUBCHEM_OPENEYE_ISO_SMILES>
CC1=CC(=O)C2CC1C2(C)C

> <PUBCHEM_CACTVS_TPSA>
17.1

> <PUBCHEM_MONOISOTOPIC_WEIGHT>
150.104

> <PUBCHEM_TOTAL_CHARGE>
0

> <PUBCHEM_HEAVY_ATOM_COUNT>
11

> <PUBCHEM_ATOM_DEF_STEREO_COUNT>
0

> <PUBCHEM_ATOM_UDEF_STEREO_COUNT>
2

> <PUBCHEM_BOND_DEF_STEREO_COUNT>
0

> <PUBCHEM_BOND_UDEF_STEREO_COUNT>
0

> <PUBCHEM_ISOTOPIC_ATOM_COUNT>
0

> <PUBCHEM_COMPONENT_COUNT>
1

> <PUBCHEM_CACTVS_TAUTO_COUNT>
-1

> <PUBCHEM_COORDINATE_TYPE>
1 __ 5 __ 255

> <PUBCHEM_BONDANNOTATIONS>
3  2  3 __ 4  2  3

$$$$
22310
 OpenBabel02201912233D

 30 30  0  0  1  0  0  0  0  0999 V2000
   -0.8362   -0.8004    0.2871 O   0  0  0  0  0  0  0  0  0  0  0  0
    0.7620   -1.2286    2.7300 O   0  0  0  0  0  0  0  0  0  0  0  0
    0.6030   -0.9402    0.2538 C   0  0  3  0  0  0  0  0  0  0  0  0
   -1.1862    0.5959    0.3237 C   0  0  3  0  0  0  0  0  0  0  0  0
    1.1856    0.4693    0.1538 C   0  0  0  0  0  0  0  0  0  0  0  0
    0.0118    1.2992   -0.3107 C   0  0  0  0  0  0  0  0  0  0  0  0
    1.1070   -1.7934    1.4568 C   0  0  0  0  0  0  0  0  0  0  0  0
   -2.4538    0.8074   -0.5049 C   0  0  0  0  0  0  0  0  0  0  0  0
    0.4576   -3.1841    1.4315 C   0  0  0  0  0  0  0  0  0  0  0  0
    2.6301   -1.9366    1.4466 C   0  0  0  0  0  0  0  0  0  0  0  0
   -1.4929    0.9022    1.7718 C   0  0  0  0  0  0  0  0  0  0  0  0
   -0.9421    1.8260    2.5703 C   0  0  0  0  0  0  0  0  0  0  0  0
    0.8296   -1.4775   -0.6762 H   0  0  0  0  0  0  0  0  0  0  0  0
    1.5563    0.8408    1.1136 H   0  0  0  0  0  0  0  0  0  0  0  0
    2.0246    0.5115   -0.5486 H   0  0  0  0  0  0  0  0  0  0  0  0
    0.1041    2.3601   -0.0527 H   0  0  0  0  0  0  0  0  0  0  0  0
   -0.0414    1.2405   -1.4058 H   0  0  0  0  0  0  0  0  0  0  0  0
   -3.2695    0.1668   -0.1508 H   0  0  0  0  0  0  0  0  0  0  0  0
   -2.7885    1.8497   -0.4669 H   0  0  0  0  0  0  0  0  0  0  0  0
   -2.2895    0.5360   -1.5541 H   0  0  0  0  0  0  0  0  0  0  0  0
    2.9872   -2.4072    0.5260 H   0  0  0  0  0  0  0  0  0  0  0  0
    3.1203   -0.9634    1.5550 H   0  0  0  0  0  0  0  0  0  0  0  0
    2.9679   -2.5374    2.2993 H   0  0  0  0  0  0  0  0  0  0  0  0
    0.6955   -3.7241    0.5079 H   0  0  0  0  0  0  0  0  0  0  0  0
    0.7909   -3.7866    2.2847 H   0  0  0  0  0  0  0  0  0  0  0  0
   -0.6324   -3.1116    1.5213 H   0  0  0  0  0  0  0  0  0  0  0  0
   -2.2534    0.2543    2.2102 H   0  0  0  0  0  0  0  0  0  0  0  0
    0.7412   -0.2626    2.6500 H   0  0  0  0  0  0  0  0  0  0  0  0
   -1.2579    1.9019    3.6073 H   0  0  0  0  0  0  0  0  0  0  0  0
   -0.1654    2.5066    2.2412 H   0  0  0  0  0  0  0  0  0  0  0  0
  1  3  1  0  0  0  0
  1  4  1  0  0  0  0
  2  7  1  0  0  0  0
  2 28  1  0  0  0  0
  3  5  1  0  0  0  0
  3  7  1  0  0  0  0
  3 13  1  0  0  0  0
  4  6  1  0  0  0  0
  4  8  1  0  0  0  0
  4 11  1  0  0  0  0
  5  6  1  0  0  0  0
  5 14  1  0  0  0  0
  5 15  1  0  0  0  0
  6 16  1  0  0  0  0
  6 17  1  0  0  0  0
  7  9  1  0  0  0  0
  7 10  1  0  0  0  0
  8 18  1  0  0  0  0
  8 19  1  0  0  0  0
  8 20  1  0  0  0  0
  9 24  1  0  0  0  0
  9 25  1  0  0  0  0
  9 26  1  0  0  0  0
 10 21  1  0  0  0  0
 10 22  1  0  0  0  0
 10 23  1  0  0  0  0
 11 12  2  0  0  0  0
 11 27  1  0  0  0  0
 12 29  1  0  0  0  0
 12 30  1  0  0  0  0
M  END
> <PUBCHEM_COMPOUND_CID>
22310

> <PUBCHEM_COMPOUND_CANONICALIZED>
1

> <PUBCHEM_CACTVS_COMPLEXITY>
186

> <PUBCHEM_CACTVS_HBOND_ACCEPTOR>
2

> <PUBCHEM_CACTVS_HBOND_DONOR>
1

> <PUBCHEM_CACTVS_ROTATABLE_BOND>
2

> <PUBCHEM_CACTVS_SUBSKEYS>
AAADceBwMAAAAAAAAAAAAAAAAAAAASAAAAAAAAAAAAAAAAAAAAAAGgAACAAADFSggAICAAAABgCAACBCAAAAAAAgAAAIAAAAAAgBBAIAIAACQAAEgAADIAGA4FQMAAAAAAAAAAAAAAAAAAAAAAAAAAAAAA==

> <PUBCHEM_IUPAC_OPENEYE_NAME>
2-(5-methyl-5-vinyl-tetrahydrofuran-2-yl)propan-2-ol

> <PUBCHEM_IUPAC_CAS_NAME>
2-(5-ethenyl-5-methyl-2-oxolanyl)-2-propanol

> <PUBCHEM_IUPAC_NAME>
2-(5-ethenyl-5-methyloxolan-2-yl)propan-2-ol

> <PUBCHEM_IUPAC_SYSTEMATIC_NAME>
2-(5-ethenyl-5-methyl-oxolan-2-yl)propan-2-ol

> <PUBCHEM_IUPAC_TRADITIONAL_NAME>
2-(5-methyl-5-vinyl-tetrahydrofuran-2-yl)propan-2-ol

> <PUBCHEM_IUPAC_INCHI>
InChI=1S/C10H18O2/c1-5-10(4)7-6-8(12-10)9(2,3)11/h5,8,11H,1,6-7H2,2-4H3

> <PUBCHEM_IUPAC_INCHIKEY>
BRHDDEIRQPDPMG-UHFFFAOYSA-N

> <PUBCHEM_XLOGP3_AA>
1.4

> <PUBCHEM_EXACT_MASS>
170.131

> <PUBCHEM_MOLECULAR_FORMULA>
C10H18O2

> <PUBCHEM_MOLECULAR_WEIGHT>
170.252

> <PUBCHEM_OPENEYE_CAN_SMILES>
CC1(CCC(O1)C(C)(C)O)C=C

> <PUBCHEM_OPENEYE_ISO_SMILES>
CC1(CCC(O1)C(C)(C)O)C=C

> <PUBCHEM_CACTVS_TPSA>
29.5

> <PUBCHEM_MONOISOTOPIC_WEIGHT>
170.131

> <PUBCHEM_TOTAL_CHARGE>
0

> <PUBCHEM_HEAVY_ATOM_COUNT>
12

> <PUBCHEM_ATOM_DEF_STEREO_COUNT>
0

> <PUBCHEM_ATOM_UDEF_STEREO_COUNT>
2

> <PUBCHEM_BOND_DEF_STEREO_COUNT>
0

> <PUBCHEM_BOND_UDEF_STEREO_COUNT>
0

> <PUBCHEM_ISOTOPIC_ATOM_COUNT>
0

> <PUBCHEM_COMPONENT_COUNT>
1

> <PUBCHEM_CACTVS_TAUTO_COUNT>
-1

> <PUBCHEM_COORDINATE_TYPE>
1 __ 5 __ 255

> <PUBCHEM_BONDANNOTATIONS>
3  7  3 __ 4  11  3

$$$$
6428574
 OpenBabel02201912233D

 30 30  0  0  1  0  0  0  0  0999 V2000
    0.6217    1.1038    0.0342 O   0  0  0  0  0  0  0  0  0  0  0  0
    0.7376   -1.3675   -1.6394 O   0  0  0  0  0  0  0  0  0  0  0  0
    1.4137   -0.0587    0.3282 C   0  0  0  0  0  0  0  0  0  0  0  0
    0.7326   -1.3430   -0.2052 C   0  0  1  0  0  0  0  0  0  0  0  0
   -0.7811    1.1169    0.3308 C   0  0  1  0  0  0  0  0  0  0  0  0
   -0.7224   -1.4367    0.2460 C   0  0  0  0  0  0  0  0  0  0  0  0
   -1.4845   -0.1711   -0.1377 C   0  0  0  0  0  0  0  0  0  0  0  0
    2.7506    0.1819   -0.4012 C   0  0  0  0  0  0  0  0  0  0  0  0
    1.7385   -0.1586    1.8257 C   0  0  0  0  0  0  0  0  0  0  0  0
   -1.0374    1.3930    1.8195 C   0  0  0  0  0  0  0  0  0  0  0  0
   -1.3956    2.2860   -0.4358 C   0  0  0  0  0  0  0  0  0  0  0  0
   -0.7472    3.1818   -1.1950 C   0  0  0  0  0  0  0  0  0  0  0  0
    1.2809   -2.2327    0.1239 H   0  0  0  0  0  0  0  0  0  0  0  0
   -1.2077   -2.2950   -0.2339 H   0  0  0  0  0  0  0  0  0  0  0  0
   -0.7816   -1.5998    1.3268 H   0  0  0  0  0  0  0  0  0  0  0  0
   -1.5870   -0.1605   -1.2317 H   0  0  0  0  0  0  0  0  0  0  0  0
   -2.5065   -0.2231    0.2590 H   0  0  0  0  0  0  0  0  0  0  0  0
    3.2469    1.0797   -0.0133 H   0  0  0  0  0  0  0  0  0  0  0  0
    3.4323   -0.6672   -0.2834 H   0  0  0  0  0  0  0  0  0  0  0  0
    2.6024    0.3626   -1.4712 H   0  0  0  0  0  0  0  0  0  0  0  0
    0.8964   -0.5152    2.4201 H   0  0  0  0  0  0  0  0  0  0  0  0
    2.5596   -0.8620    2.0053 H   0  0  0  0  0  0  0  0  0  0  0  0
    2.0265    0.8193    2.2280 H   0  0  0  0  0  0  0  0  0  0  0  0
   -0.3605    2.1669    2.1988 H   0  0  0  0  0  0  0  0  0  0  0  0
   -2.0687    1.7191    2.0017 H   0  0  0  0  0  0  0  0  0  0  0  0
   -0.8922    0.5053    2.4377 H   0  0  0  0  0  0  0  0  0  0  0  0
   -2.4749    2.3959   -0.3421 H   0  0  0  0  0  0  0  0  0  0  0  0
    0.5268   -0.4629   -1.9396 H   0  0  0  0  0  0  0  0  0  0  0  0
   -1.2840    3.9839   -1.6907 H   0  0  0  0  0  0  0  0  0  0  0  0
    0.3297    3.1433   -1.3297 H   0  0  0  0  0  0  0  0  0  0  0  0
  1  3  1  0  0  0  0
  1  5  1  0  0  0  0
  2 28  1  0  0  0  0
  3  4  1  0  0  0  0
  3  8  1  0  0  0  0
  3  9  1  0  0  0  0
  4  2  1  0  0  0  0
  4  6  1  0  0  0  0
  4 13  1  1  0  0  0
  5  7  1  0  0  0  0
  5 10  1  0  0  0  0
  5 11  1  6  0  0  0
  6  7  1  0  0  0  0
  6 14  1  0  0  0  0
  6 15  1  0  0  0  0
  7 16  1  0  0  0  0
  7 17  1  0  0  0  0
  8 18  1  0  0  0  0
  8 19  1  0  0  0  0
  8 20  1  0  0  0  0
  9 21  1  0  0  0  0
  9 22  1  0  0  0  0
  9 23  1  0  0  0  0
 10 24  1  0  0  0  0
 10 25  1  0  0  0  0
 10 26  1  0  0  0  0
 11 12  2  0  0  0  0
 11 27  1  0  0  0  0
 12 29  1  0  0  0  0
 12 30  1  0  0  0  0
M  END
> <PUBCHEM_COMPOUND_CID>
6428574

> <PUBCHEM_COMPOUND_CANONICALIZED>
1

> <PUBCHEM_CACTVS_COMPLEXITY>
186

> <PUBCHEM_CACTVS_HBOND_ACCEPTOR>
2

> <PUBCHEM_CACTVS_HBOND_DONOR>
1

> <PUBCHEM_CACTVS_ROTATABLE_BOND>
1

> <PUBCHEM_CACTVS_SUBSKEYS>
AAADceBwMAAAAAAAAAAAAAAAAAAAAAAAAAAkAAAAAAAAAAAAAAAAGgAACAAADFSggAICAAAABgCAACBCAAAAAAAgAAAIAAAAAAgBFAIAIAACQAAEgAADIAHAwFAMAAAAAAAAAAAAAAAAAAAAAAAAAAAAAA==

> <PUBCHEM_IUPAC_OPENEYE_NAME>
(3~{R},6~{R})-2,2,6-trimethyl-6-vinyl-tetrahydropyran-3-ol

> <PUBCHEM_IUPAC_CAS_NAME>
(3~{R},6~{R})-6-ethenyl-2,2,6-trimethyl-3-oxanol

> <PUBCHEM_IUPAC_NAME>
(3~{R},6~{R})-6-ethenyl-2,2,6-trimethyloxan-3-ol

> <PUBCHEM_IUPAC_SYSTEMATIC_NAME>
(3~{R},6~{R})-6-ethenyl-2,2,6-trimethyl-oxan-3-ol

> <PUBCHEM_IUPAC_TRADITIONAL_NAME>
(3~{R},6~{R})-2,2,6-trimethyl-6-vinyl-tetrahydropyran-3-ol

> <PUBCHEM_IUPAC_INCHI>
InChI=1S/C10H18O2/c1-5-10(4)7-6-8(11)9(2,3)12-10/h5,8,11H,1,6-7H2,2-4H3/t8-,10+/m1/s1

> <PUBCHEM_IUPAC_INCHIKEY>
BCTBAGTXFYWYMW-SCZZXKLOSA-N

> <PUBCHEM_XLOGP3_AA>
1.4

> <PUBCHEM_EXACT_MASS>
170.131

> <PUBCHEM_MOLECULAR_FORMULA>
C10H18O2

> <PUBCHEM_MOLECULAR_WEIGHT>
170.252

> <PUBCHEM_OPENEYE_CAN_SMILES>
CC1(C(CCC(O1)(C)C=C)O)C

> <PUBCHEM_OPENEYE_ISO_SMILES>
C[C@@]1(CC[C@H](C(O1)(C)C)O)C=C

> <PUBCHEM_CACTVS_TPSA>
29.5

> <PUBCHEM_MONOISOTOPIC_WEIGHT>
170.131

> <PUBCHEM_TOTAL_CHARGE>
0

> <PUBCHEM_HEAVY_ATOM_COUNT>
12

> <PUBCHEM_ATOM_DEF_STEREO_COUNT>
2

> <PUBCHEM_ATOM_UDEF_STEREO_COUNT>
0

> <PUBCHEM_BOND_DEF_STEREO_COUNT>
0

> <PUBCHEM_BOND_UDEF_STEREO_COUNT>
0

> <PUBCHEM_ISOTOPIC_ATOM_COUNT>
0

> <PUBCHEM_COMPONENT_COUNT>
1

> <PUBCHEM_CACTVS_TAUTO_COUNT>
-1

> <PUBCHEM_COORDINATE_TYPE>
1 __ 5 __ 255

> <PUBCHEM_BONDANNOTATIONS>
4  2  6 __ 5  10  5

$$$$
8858
 OpenBabel02201912233D

 17 16  0  0  0  0  0  0  0  0999 V2000
    0.9702   -0.2226   -0.0048 O   0  0  0  0  0  0  0  0  0  0  0  0
    4.4439   -1.2310    0.3827 C   0  0  0  0  0  0  0  0  0  0  0  0
    3.1040   -1.0993    0.3318 C   0  0  0  0  0  0  0  0  0  0  0  0
    5.0422   -2.5254    0.8816 C   0  0  0  0  0  0  0  0  0  0  0  0
    5.4632   -0.2046   -0.0123 C   0  0  0  0  0  0  0  0  0  0  0  0
    2.1826   -0.0026   -0.0907 C   0  0  0  0  0  0  0  0  0  0  0  0
    2.6580    1.3266   -0.6042 C   0  0  0  0  0  0  0  0  0  0  0  0
    2.5065   -1.9522    0.6606 H   0  0  0  0  0  0  0  0  0  0  0  0
    5.6652   -2.9782    0.1029 H   0  0  0  0  0  0  0  0  0  0  0  0
    5.3730    0.0467   -1.0734 H   0  0  0  0  0  0  0  0  0  0  0  0
    5.3714    0.6944    0.6045 H   0  0  0  0  0  0  0  0  0  0  0  0
    6.4822   -0.5805    0.1337 H   0  0  0  0  0  0  0  0  0  0  0  0
    5.6650   -2.3387    1.7629 H   0  0  0  0  0  0  0  0  0  0  0  0
    4.2811   -3.2602    1.1645 H   0  0  0  0  0  0  0  0  0  0  0  0
    2.2682    1.4701   -1.6163 H   0  0  0  0  0  0  0  0  0  0  0  0
    2.2716    2.1131    0.0506 H   0  0  0  0  0  0  0  0  0  0  0  0
    3.7350    1.4322   -0.6474 H   0  0  0  0  0  0  0  0  0  0  0  0
  1  6  2  0  0  0  0
  2  3  2  0  0  0  0
  2  4  1  0  0  0  0
  2  5  1  0  0  0  0
  3  6  1  0  0  0  0
  3  8  1  0  0  0  0
  4  9  1  0  0  0  0
  4 13  1  0  0  0  0
  4 14  1  0  0  0  0
  5 10  1  0  0  0  0
  5 11  1  0  0  0  0
  5 12  1  0  0  0  0
  6  7  1  0  0  0  0
  7 15  1  0  0  0  0
  7 16  1  0  0  0  0
  7 17  1  0  0  0  0
M  END
> <PUBCHEM_COMPOUND_CID>
8858

> <PUBCHEM_COMPOUND_CANONICALIZED>
1

> <PUBCHEM_CACTVS_COMPLEXITY>
96.7

> <PUBCHEM_CACTVS_HBOND_ACCEPTOR>
1

> <PUBCHEM_CACTVS_HBOND_DONOR>
0

> <PUBCHEM_CACTVS_ROTATABLE_BOND>
1

> <PUBCHEM_CACTVS_SUBSKEYS>
AAADccBgIAAAAAAAAAAAAAAAAAAAAAAAAAAAAAAAAAAAAAAAAAAAGgAAAAAADASAgAACAAAAAACIAqBSAAAAAAAgAAAACAAAAEgAAAAAAQAAAAAAAAAIAQIAAAAAAAAAAAAAAAAAAAAAAAAAAAAAAAAAAA==

> <PUBCHEM_IUPAC_OPENEYE_NAME>
4-methylpent-3-en-2-one

> <PUBCHEM_IUPAC_CAS_NAME>
4-methyl-3-penten-2-one

> <PUBCHEM_IUPAC_NAME>
4-methylpent-3-en-2-one

> <PUBCHEM_IUPAC_SYSTEMATIC_NAME>
4-methylpent-3-en-2-one

> <PUBCHEM_IUPAC_TRADITIONAL_NAME>
4-methylpent-3-en-2-one

> <PUBCHEM_IUPAC_INCHI>
InChI=1S/C6H10O/c1-5(2)4-6(3)7/h4H,1-3H3

> <PUBCHEM_IUPAC_INCHIKEY>
SHOJXDKTYKFBRD-UHFFFAOYSA-N

> <PUBCHEM_XLOGP3_AA>
1.4

> <PUBCHEM_EXACT_MASS>
98.073

> <PUBCHEM_MOLECULAR_FORMULA>
C6H10O

> <PUBCHEM_MOLECULAR_WEIGHT>
98.145

> <PUBCHEM_OPENEYE_CAN_SMILES>
CC(=CC(=O)C)C

> <PUBCHEM_OPENEYE_ISO_SMILES>
CC(=CC(=O)C)C

> <PUBCHEM_CACTVS_TPSA>
17.1

> <PUBCHEM_MONOISOTOPIC_WEIGHT>
98.073

> <PUBCHEM_TOTAL_CHARGE>
0

> <PUBCHEM_HEAVY_ATOM_COUNT>
7

> <PUBCHEM_ATOM_DEF_STEREO_COUNT>
0

> <PUBCHEM_ATOM_UDEF_STEREO_COUNT>
0

> <PUBCHEM_BOND_DEF_STEREO_COUNT>
0

> <PUBCHEM_BOND_UDEF_STEREO_COUNT>
0

> <PUBCHEM_ISOTOPIC_ATOM_COUNT>
0

> <PUBCHEM_COMPONENT_COUNT>
1

> <PUBCHEM_CACTVS_TAUTO_COUNT>
-1

> <PUBCHEM_COORDINATE_TYPE>
1 __ 5 __ 255

$$$$
9862_2
 OpenBabel02201912233D

 23 22  0  0  0  0  0  0  0  0999 V2000
    1.7828   -0.3509    3.1620 O   0  0  0  0  0  0  0  0  0  0  0  0
    3.9188   -1.1247    1.5347 C   0  0  0  0  0  0  0  0  0  0  0  0
    3.1632    0.1714    1.2504 C   0  0  0  0  0  0  0  0  0  0  0  0
    5.0331   -1.3088    0.5381 C   0  0  0  0  0  0  0  0  0  0  0  0
    6.3449   -1.4445    0.8130 C   0  0  0  0  0  0  0  0  0  0  0  0
    2.0364    0.4164    2.2344 C   0  0  0  0  0  0  0  0  0  0  0  0
    7.3581   -1.5814   -0.2903 C   0  0  0  0  0  0  0  0  0  0  0  0
    6.8992   -1.4725    2.2099 C   0  0  0  0  0  0  0  0  0  0  0  0
    1.1999    1.6485    2.0060 C   0  0  0  0  0  0  0  0  0  0  0  0
    4.2922   -1.1160    2.5648 H   0  0  0  0  0  0  0  0  0  0  0  0
    3.2356   -1.9794    1.4593 H   0  0  0  0  0  0  0  0  0  0  0  0
    2.7273    0.1411    0.2449 H   0  0  0  0  0  0  0  0  0  0  0  0
    3.8475    1.0262    1.3071 H   0  0  0  0  0  0  0  0  0  0  0  0
    4.7155   -1.3280   -0.5044 H   0  0  0  0  0  0  0  0  0  0  0  0
    8.1115   -0.7905   -0.2102 H   0  0  0  0  0  0  0  0  0  0  0  0
    7.8613   -2.5515   -0.2277 H   0  0  0  0  0  0  0  0  0  0  0  0
    6.9029   -1.5024   -1.2831 H   0  0  0  0  0  0  0  0  0  0  0  0
    6.7120   -0.5230    2.7210 H   0  0  0  0  0  0  0  0  0  0  0  0
    6.4541   -2.2892    2.7878 H   0  0  0  0  0  0  0  0  0  0  0  0
    7.9830   -1.6342    2.2050 H   0  0  0  0  0  0  0  0  0  0  0  0
    0.2322    1.3561    1.5914 H   0  0  0  0  0  0  0  0  0  0  0  0
    1.0631    2.1754    2.9541 H   0  0  0  0  0  0  0  0  0  0  0  0
    1.6987    2.3249    1.3066 H   0  0  0  0  0  0  0  0  0  0  0  0
  1  6  2  0  0  0  0
  2  3  1  0  0  0  0
  2  4  1  0  0  0  0
  2 10  1  0  0  0  0
  2 11  1  0  0  0  0
  3  6  1  0  0  0  0
  3 12  1  0  0  0  0
  3 13  1  0  0  0  0
  4  5  2  0  0  0  0
  4 14  1  0  0  0  0
  5  7  1  0  0  0  0
  5  8  1  0  0  0  0
  6  9  1  0  0  0  0
  7 15  1  0  0  0  0
  7 16  1  0  0  0  0
  7 17  1  0  0  0  0
  8 18  1  0  0  0  0
  8 19  1  0  0  0  0
  8 20  1  0  0  0  0
  9 21  1  0  0  0  0
  9 22  1  0  0  0  0
  9 23  1  0  0  0  0
M  END
> <PUBCHEM_COMPOUND_CID>
9862

> <PUBCHEM_COMPOUND_CANONICALIZED>
1

> <PUBCHEM_CACTVS_COMPLEXITY>
119

> <PUBCHEM_CACTVS_HBOND_ACCEPTOR>
1

> <PUBCHEM_CACTVS_HBOND_DONOR>
0

> <PUBCHEM_CACTVS_ROTATABLE_BOND>
3

> <PUBCHEM_CACTVS_SUBSKEYS>
AAADccBwIAAAAAAAAAAAAAAAAAAAAAAAAAAAAAAAAAAAAAAAAAAAGgAAAAAADASAgAACAAAAAACIAqBSAAAAAAAgAAAACAEAAAgAABIAAQAAAAAAgAAIAAIAAAAAAAAAAAAAAAAAAAAAAAAAAAAAAAAAAA==

> <PUBCHEM_IUPAC_OPENEYE_NAME>
6-methylhept-5-en-2-one

> <PUBCHEM_IUPAC_CAS_NAME>
6-methyl-5-hepten-2-one

> <PUBCHEM_IUPAC_NAME>
6-methylhept-5-en-2-one

> <PUBCHEM_IUPAC_SYSTEMATIC_NAME>
6-methylhept-5-en-2-one

> <PUBCHEM_IUPAC_TRADITIONAL_NAME>
6-methylhept-5-en-2-one

> <PUBCHEM_IUPAC_INCHI>
InChI=1S/C8H14O/c1-7(2)5-4-6-8(3)9/h5H,4,6H2,1-3H3

> <PUBCHEM_IUPAC_INCHIKEY>
UHEPJGULSIKKTP-UHFFFAOYSA-N

> <PUBCHEM_XLOGP3>
1.9

> <PUBCHEM_EXACT_MASS>
126.104

> <PUBCHEM_MOLECULAR_FORMULA>
C8H14O

> <PUBCHEM_MOLECULAR_WEIGHT>
126.199

> <PUBCHEM_OPENEYE_CAN_SMILES>
CC(=CCCC(=O)C)C

> <PUBCHEM_OPENEYE_ISO_SMILES>
CC(=CCCC(=O)C)C

> <PUBCHEM_CACTVS_TPSA>
17.1

> <PUBCHEM_MONOISOTOPIC_WEIGHT>
126.104

> <PUBCHEM_TOTAL_CHARGE>
0

> <PUBCHEM_HEAVY_ATOM_COUNT>
9

> <PUBCHEM_ATOM_DEF_STEREO_COUNT>
0

> <PUBCHEM_ATOM_UDEF_STEREO_COUNT>
0

> <PUBCHEM_BOND_DEF_STEREO_COUNT>
0

> <PUBCHEM_BOND_UDEF_STEREO_COUNT>
0

> <PUBCHEM_ISOTOPIC_ATOM_COUNT>
0

> <PUBCHEM_COMPONENT_COUNT>
1

> <PUBCHEM_CACTVS_TAUTO_COUNT>
-1

> <PUBCHEM_COORDINATE_TYPE>
1 __ 5 __ 255

$$$$
3853254
 OpenBabel02201912233D

 24 25  0  0  1  0  0  0  0  0999 V2000
   -1.3469    0.9761    0.7149 O   0  0  0  0  0  0  0  0  0  0  0  0
    1.5020    2.0094    1.1760 O   0  0  0  0  0  0  0  0  0  0  0  0
   -0.9738   -2.1362    0.7633 O   0  0  0  0  0  0  0  0  0  0  0  0
   -0.2579    1.2394   -0.1884 C   0  0  3  0  0  0  0  0  0  0  0  0
   -1.0901   -0.0204   -0.2816 C   0  0  3  0  0  0  0  0  0  0  0  0
    1.8950   -0.1214    0.0606 C   0  0  0  0  0  0  0  0  0  0  0  0
    1.0782    1.1136    0.4560 C   0  0  0  0  0  0  0  0  0  0  0  0
    1.0260   -1.3350   -0.3449 C   0  0  0  0  0  0  0  0  0  0  0  0
   -0.3986   -1.2482    0.1530 C   0  0  0  0  0  0  0  0  0  0  0  0
   -0.5054    2.3207   -1.1895 C   0  0  0  0  0  0  0  0  0  0  0  0
    2.7830    0.3090   -1.1167 C   0  0  0  0  0  0  0  0  0  0  0  0
    2.7903   -0.5233    1.2485 C   0  0  0  0  0  0  0  0  0  0  0  0
   -1.8230   -0.1339   -1.0680 H   0  0  0  0  0  0  0  0  0  0  0  0
    0.9596   -1.4184   -1.4381 H   0  0  0  0  0  0  0  0  0  0  0  0
    1.4613   -2.2780    0.0049 H   0  0  0  0  0  0  0  0  0  0  0  0
   -0.0433    2.0504   -2.1460 H   0  0  0  0  0  0  0  0  0  0  0  0
   -1.5726    2.4849   -1.3630 H   0  0  0  0  0  0  0  0  0  0  0  0
   -0.0643    3.2653   -0.8584 H   0  0  0  0  0  0  0  0  0  0  0  0
    2.1848   -0.8225    2.1117 H   0  0  0  0  0  0  0  0  0  0  0  0
    3.4400   -1.3635    0.9827 H   0  0  0  0  0  0  0  0  0  0  0  0
    3.4348    0.3019    1.5672 H   0  0  0  0  0  0  0  0  0  0  0  0
    3.4014    1.1756   -0.8512 H   0  0  0  0  0  0  0  0  0  0  0  0
    3.4479   -0.4998   -1.4312 H   0  0  0  0  0  0  0  0  0  0  0  0
    2.1763    0.6045   -1.9823 H   0  0  0  0  0  0  0  0  0  0  0  0
  1  4  1  0  0  0  0
  1  5  1  0  0  0  0
  2  7  2  0  0  0  0
  3  9  2  0  0  0  0
  4  5  1  0  0  0  0
  4  7  1  0  0  0  0
  4 10  1  0  0  0  0
  5  9  1  0  0  0  0
  5 13  1  0  0  0  0
  6  7  1  0  0  0  0
  6  8  1  0  0  0  0
  6 11  1  0  0  0  0
  6 12  1  0  0  0  0
  8  9  1  0  0  0  0
  8 14  1  0  0  0  0
  8 15  1  0  0  0  0
 10 16  1  0  0  0  0
 10 17  1  0  0  0  0
 10 18  1  0  0  0  0
 11 22  1  0  0  0  0
 11 23  1  0  0  0  0
 11 24  1  0  0  0  0
 12 19  1  0  0  0  0
 12 20  1  0  0  0  0
 12 21  1  0  0  0  0
M  END
> <PUBCHEM_COMPOUND_CID>
3853254

> <PUBCHEM_COMPOUND_CANONICALIZED>
1

> <PUBCHEM_CACTVS_COMPLEXITY>
280

> <PUBCHEM_CACTVS_HBOND_ACCEPTOR>
3

> <PUBCHEM_CACTVS_HBOND_DONOR>
0

> <PUBCHEM_CACTVS_ROTATABLE_BOND>
0

> <PUBCHEM_CACTVS_SUBSKEYS>
AAADccBwMAAAAAAAAAAAAAAAEgAAAAAAAAAwAAAABIAAAAAAAAAAGgAAAAAADlSggAICAAAABAAIAIAQAAIAAAAAAAAAAAFAAAAAABYAAAQCAAAEIAAAAAGJzHDPAAAAAAAAAABAAAYAABAAAAAAAAAAAA==

> <PUBCHEM_IUPAC_OPENEYE_NAME>
1,3,3-trimethyl-7-oxabicyclo[4.1.0]heptane-2,5-dione

> <PUBCHEM_IUPAC_CAS_NAME>
1,3,3-trimethyl-7-oxabicyclo[4.1.0]heptane-2,5-dione

> <PUBCHEM_IUPAC_NAME>
1,3,3-trimethyl-7-oxabicyclo[4.1.0]heptane-2,5-dione

> <PUBCHEM_IUPAC_SYSTEMATIC_NAME>
1,3,3-trimethyl-7-oxabicyclo[4.1.0]heptane-2,5-dione

> <PUBCHEM_IUPAC_TRADITIONAL_NAME>
1,3,3-trimethyl-7-oxabicyclo[4.1.0]heptane-2,5-quinone

> <PUBCHEM_IUPAC_INCHI>
InChI=1S/C9H12O3/c1-8(2)4-5(10)6-9(3,12-6)7(8)11/h6H,4H2,1-3H3

> <PUBCHEM_IUPAC_INCHIKEY>
VOFRQXZPJRQJIW-UHFFFAOYSA-N

> <PUBCHEM_XLOGP3_AA>
0.4

> <PUBCHEM_EXACT_MASS>
168.079

> <PUBCHEM_MOLECULAR_FORMULA>
C9H12O3

> <PUBCHEM_MOLECULAR_WEIGHT>
168.192

> <PUBCHEM_OPENEYE_CAN_SMILES>
CC1(CC(=O)C2C(C1=O)(O2)C)C

> <PUBCHEM_OPENEYE_ISO_SMILES>
CC1(CC(=O)C2C(C1=O)(O2)C)C

> <PUBCHEM_CACTVS_TPSA>
46.7

> <PUBCHEM_MONOISOTOPIC_WEIGHT>
168.079

> <PUBCHEM_TOTAL_CHARGE>
0

> <PUBCHEM_HEAVY_ATOM_COUNT>
12

> <PUBCHEM_ATOM_DEF_STEREO_COUNT>
0

> <PUBCHEM_ATOM_UDEF_STEREO_COUNT>
2

> <PUBCHEM_BOND_DEF_STEREO_COUNT>
0

> <PUBCHEM_BOND_UDEF_STEREO_COUNT>
0

> <PUBCHEM_ISOTOPIC_ATOM_COUNT>
0

> <PUBCHEM_COMPONENT_COUNT>
1

> <PUBCHEM_CACTVS_TAUTO_COUNT>
-1

> <PUBCHEM_COORDINATE_TYPE>
1 __ 5 __ 255

> <PUBCHEM_BONDANNOTATIONS>
4  10  3 __ 5  13  3

$$$$
1549778
 OpenBabel02201912233D

 36 35  0  0  0  0  0  0  0  0999 V2000
    1.6993    1.3591    2.9377 O   0  0  0  0  0  0  0  0  0  0  0  0
    7.2934   -1.3927    0.5493 C   0  0  0  0  0  0  0  0  0  0  0  0
    6.2440   -0.7423    1.4385 C   0  0  0  0  0  0  0  0  0  0  0  0
    6.7762   -2.2543   -0.6144 C   0  0  0  0  0  0  0  0  0  0  0  0
    3.8162   -0.2015    2.0077 C   0  0  0  0  0  0  0  0  0  0  0  0
    4.9179   -0.8919    1.2531 C   0  0  0  0  0  0  0  0  0  0  0  0
    3.3472    1.0098    1.2091 C   0  0  0  0  0  0  0  0  0  0  0  0
    7.9113   -2.8183   -1.4242 C   0  0  0  0  0  0  0  0  0  0  0  0
    6.8141    0.1295    2.5301 C   0  0  0  0  0  0  0  0  0  0  0  0
    8.1400   -4.1215   -1.6745 C   0  0  0  0  0  0  0  0  0  0  0  0
    2.1998    1.7351    1.8770 C   0  0  0  0  0  0  0  0  0  0  0  0
    9.3375   -4.5568   -2.4703 C   0  0  0  0  0  0  0  0  0  0  0  0
    7.2442   -5.2263   -1.1870 C   0  0  0  0  0  0  0  0  0  0  0  0
    1.6572    2.9386    1.1522 C   0  0  0  0  0  0  0  0  0  0  0  0
    7.9191   -0.5898    0.1348 H   0  0  0  0  0  0  0  0  0  0  0  0
    7.9464   -2.0087    1.1815 H   0  0  0  0  0  0  0  0  0  0  0  0
    6.1406   -3.0540   -0.2194 H   0  0  0  0  0  0  0  0  0  0  0  0
    6.1543   -1.6464   -1.2831 H   0  0  0  0  0  0  0  0  0  0  0  0
    4.1294    0.0989    3.0121 H   0  0  0  0  0  0  0  0  0  0  0  0
    2.9919   -0.9112    2.1481 H   0  0  0  0  0  0  0  0  0  0  0  0
    4.5499   -1.5323    0.4546 H   0  0  0  0  0  0  0  0  0  0  0  0
    3.0155    0.7033    0.2092 H   0  0  0  0  0  0  0  0  0  0  0  0
    4.1706    1.7246    1.0955 H   0  0  0  0  0  0  0  0  0  0  0  0
    8.5940   -2.0756   -1.8357 H   0  0  0  0  0  0  0  0  0  0  0  0
    6.7540    1.1848    2.2453 H   0  0  0  0  0  0  0  0  0  0  0  0
    6.2910   -0.0178    3.4799 H   0  0  0  0  0  0  0  0  0  0  0  0
    7.8667   -0.1087    2.7176 H   0  0  0  0  0  0  0  0  0  0  0  0
    7.2166   -5.2501   -0.0929 H   0  0  0  0  0  0  0  0  0  0  0  0
    9.9468   -5.2517   -1.8834 H   0  0  0  0  0  0  0  0  0  0  0  0
    9.0224   -5.0561   -3.3916 H   0  0  0  0  0  0  0  0  0  0  0  0
    9.9781   -3.7121   -2.7483 H   0  0  0  0  0  0  0  0  0  0  0  0
    6.2265   -5.0984   -1.5714 H   0  0  0  0  0  0  0  0  0  0  0  0
    7.5977   -6.2050   -1.5277 H   0  0  0  0  0  0  0  0  0  0  0  0
    0.7222    2.6694    0.6560 H   0  0  0  0  0  0  0  0  0  0  0  0
    1.4898    3.7470    1.8680 H   0  0  0  0  0  0  0  0  0  0  0  0
    2.3745    3.2879    0.4025 H   0  0  0  0  0  0  0  0  0  0  0  0
  1 11  2  0  0  0  0
  2  3  1  0  0  0  0
  2  4  1  0  0  0  0
  2 15  1  0  0  0  0
  2 16  1  0  0  0  0
  3  6  2  0  0  0  0
  3  9  1  0  0  0  0
  4  8  1  0  0  0  0
  4 17  1  0  0  0  0
  4 18  1  0  0  0  0
  5  6  1  0  0  0  0
  5  7  1  0  0  0  0
  5 19  1  0  0  0  0
  5 20  1  0  0  0  0
  6 21  1  0  0  0  0
  7 11  1  0  0  0  0
  7 22  1  0  0  0  0
  7 23  1  0  0  0  0
  8 10  2  0  0  0  0
  8 24  1  0  0  0  0
  9 25  1  0  0  0  0
  9 26  1  0  0  0  0
  9 27  1  0  0  0  0
 10 12  1  0  0  0  0
 10 13  1  0  0  0  0
 11 14  1  0  0  0  0
 12 29  1  0  0  0  0
 12 30  1  0  0  0  0
 12 31  1  0  0  0  0
 13 28  1  0  0  0  0
 13 32  1  0  0  0  0
 13 33  1  0  0  0  0
 14 34  1  0  0  0  0
 14 35  1  0  0  0  0
 14 36  1  0  0  0  0
M  END
> <PUBCHEM_COMPOUND_CID>
1549778

> <PUBCHEM_COMPOUND_CANONICALIZED>
1

> <PUBCHEM_CACTVS_COMPLEXITY>
230

> <PUBCHEM_CACTVS_HBOND_ACCEPTOR>
1

> <PUBCHEM_CACTVS_HBOND_DONOR>
0

> <PUBCHEM_CACTVS_ROTATABLE_BOND>
6

> <PUBCHEM_CACTVS_SUBSKEYS>
AAADceBwIAAAAAAAAAAAAAAAAAAAAAAAAAAAAAAAAAAAAAAAAAAAGgAAAAAADASAgAACAAAAAACIAqBSAAAAAAAgAAAACAEAAAgAABIAAQAAAAAAgAAIAAIAAAAAAAAAAAAAAAAAAAAAAAAAAAAAAAAAAA==

> <PUBCHEM_IUPAC_OPENEYE_NAME>
(5~{E})-6,10-dimethylundeca-5,9-dien-2-one

> <PUBCHEM_IUPAC_CAS_NAME>
(5~{E})-6,10-dimethyl-2-undeca-5,9-dienone

> <PUBCHEM_IUPAC_NAME>
(5~{E})-6,10-dimethylundeca-5,9-dien-2-one

> <PUBCHEM_IUPAC_SYSTEMATIC_NAME>
(5~{E})-6,10-dimethylundeca-5,9-dien-2-one

> <PUBCHEM_IUPAC_TRADITIONAL_NAME>
(5~{E})-6,10-dimethylundeca-5,9-dien-2-one

> <PUBCHEM_IUPAC_INCHI>
InChI=1S/C13H22O/c1-11(2)7-5-8-12(3)9-6-10-13(4)14/h7,9H,5-6,8,10H2,1-4H3/b12-9+

> <PUBCHEM_IUPAC_INCHIKEY>
HNZUNIKWNYHEJJ-FMIVXFBMSA-N

> <PUBCHEM_XLOGP3_AA>
3.7

> <PUBCHEM_EXACT_MASS>
194.167

> <PUBCHEM_MOLECULAR_FORMULA>
C13H22O

> <PUBCHEM_MOLECULAR_WEIGHT>
194.318

> <PUBCHEM_OPENEYE_CAN_SMILES>
CC(=CCCC(=CCCC(=O)C)C)C

> <PUBCHEM_OPENEYE_ISO_SMILES>
CC(=CCC/C(=C/CCC(=O)C)/C)C

> <PUBCHEM_CACTVS_TPSA>
17.1

> <PUBCHEM_MONOISOTOPIC_WEIGHT>
194.167

> <PUBCHEM_TOTAL_CHARGE>
0

> <PUBCHEM_HEAVY_ATOM_COUNT>
14

> <PUBCHEM_ATOM_DEF_STEREO_COUNT>
0

> <PUBCHEM_ATOM_UDEF_STEREO_COUNT>
0

> <PUBCHEM_BOND_DEF_STEREO_COUNT>
1

> <PUBCHEM_BOND_UDEF_STEREO_COUNT>
0

> <PUBCHEM_ISOTOPIC_ATOM_COUNT>
0

> <PUBCHEM_COMPONENT_COUNT>
1

> <PUBCHEM_CACTVS_TAUTO_COUNT>
3

> <PUBCHEM_COORDINATE_TYPE>
1 __ 5 __ 255

$$$$
6427110
 OpenBabel02201912233D

 29 28  0  0  0  0  0  0  0  0999 V2000
    1.0068   -0.0537   -0.0057 C   0  0  0  0  0  0  0  0  0  0  0  0
    0.4926    1.3287    0.4229 C   0  0  0  0  0  0  0  0  0  0  0  0
    0.4836   -0.5039   -1.3574 C   0  0  0  0  0  0  0  0  0  0  0  0
    1.1309    1.7477    1.7223 C   0  0  0  0  0  0  0  0  0  0  0  0
    1.8385    2.8719    1.9460 C   0  0  0  0  0  0  0  0  0  0  0  0
   -1.0026   -0.7171   -1.4602 C   0  0  0  0  0  0  0  0  0  0  0  0
    1.3400   -0.7306   -2.3740 C   0  0  0  0  0  0  0  0  0  0  0  0
    2.4662    3.1400    3.2864 C   0  0  0  0  0  0  0  0  0  0  0  0
    2.0631    3.9273    0.9000 C   0  0  0  0  0  0  0  0  0  0  0  0
    0.9742   -1.1664   -3.7016 C   0  0  0  0  0  0  0  0  0  0  0  0
    1.8775   -1.4236   -4.6560 C   0  0  0  0  0  0  0  0  0  0  0  0
    0.7249   -0.8053    0.7432 H   0  0  0  0  0  0  0  0  0  0  0  0
    2.1052   -0.0360   -0.0134 H   0  0  0  0  0  0  0  0  0  0  0  0
    0.6824    2.0557   -0.3742 H   0  0  0  0  0  0  0  0  0  0  0  0
   -0.5931    1.3005    0.5726 H   0  0  0  0  0  0  0  0  0  0  0  0
    0.9971    1.0435    2.5433 H   0  0  0  0  0  0  0  0  0  0  0  0
   -1.4496    0.0091   -2.1468 H   0  0  0  0  0  0  0  0  0  0  0  0
   -1.2282   -1.7305   -1.8081 H   0  0  0  0  0  0  0  0  0  0  0  0
   -1.4951   -0.6024   -0.4894 H   0  0  0  0  0  0  0  0  0  0  0  0
    2.4056   -0.5779   -2.2052 H   0  0  0  0  0  0  0  0  0  0  0  0
    3.5499    3.2539    3.1776 H   0  0  0  0  0  0  0  0  0  0  0  0
    2.0595    4.0584    3.7212 H   0  0  0  0  0  0  0  0  0  0  0  0
    2.2901    2.3258    3.9972 H   0  0  0  0  0  0  0  0  0  0  0  0
    2.6159    3.5195    0.0478 H   0  0  0  0  0  0  0  0  0  0  0  0
    1.1085    4.3350    0.5515 H   0  0  0  0  0  0  0  0  0  0  0  0
    2.6464    4.7641    1.2989 H   0  0  0  0  0  0  0  0  0  0  0  0
   -0.0791   -1.2869   -3.9370 H   0  0  0  0  0  0  0  0  0  0  0  0
    1.5579   -1.7477   -5.6408 H   0  0  0  0  0  0  0  0  0  0  0  0
    2.9443   -1.3268   -4.4850 H   0  0  0  0  0  0  0  0  0  0  0  0
  1  2  1  0  0  0  0
  1  3  1  0  0  0  0
  1 12  1  0  0  0  0
  1 13  1  0  0  0  0
  2  4  1  0  0  0  0
  2 14  1  0  0  0  0
  2 15  1  0  0  0  0
  3  6  1  0  0  0  0
  3  7  2  0  0  0  0
  4  5  2  0  0  0  0
  4 16  1  0  0  0  0
  5  8  1  0  0  0  0
  5  9  1  0  0  0  0
  6 17  1  0  0  0  0
  6 18  1  0  0  0  0
  6 19  1  0  0  0  0
  7 10  1  0  0  0  0
  7 20  1  0  0  0  0
  8 21  1  0  0  0  0
  8 22  1  0  0  0  0
  8 23  1  0  0  0  0
  9 24  1  0  0  0  0
  9 25  1  0  0  0  0
  9 26  1  0  0  0  0
 10 11  2  0  0  0  0
 10 27  1  0  0  0  0
 11 28  1  0  0  0  0
 11 29  1  0  0  0  0
M  END
> <PUBCHEM_COMPOUND_CID>
6427110

> <PUBCHEM_COMPOUND_CANONICALIZED>
1

> <PUBCHEM_CACTVS_COMPLEXITY>
167

> <PUBCHEM_CACTVS_HBOND_ACCEPTOR>
0

> <PUBCHEM_CACTVS_HBOND_DONOR>
0

> <PUBCHEM_CACTVS_ROTATABLE_BOND>
4

> <PUBCHEM_CACTVS_SUBSKEYS>
AAADceBwAAAAAAAAAAAAAAAAAAAAAAAAAAAAAAAAAAAAAAAAAAAAGAAAAAAADACAAAACAAAAAACAAiBCAAAAAAAgAAAICAAAAAgIAAIAAQAAAAAAgAAIgAIAAAAAAAAAAAAAAAAAAAAAAAAAAAAAAAAAAA==

> <PUBCHEM_IUPAC_OPENEYE_NAME>
(3~{E})-4,8-dimethylnona-1,3,7-triene

> <PUBCHEM_IUPAC_CAS_NAME>
(3~{E})-4,8-dimethylnona-1,3,7-triene

> <PUBCHEM_IUPAC_NAME>
(3~{E})-4,8-dimethylnona-1,3,7-triene

> <PUBCHEM_IUPAC_SYSTEMATIC_NAME>
(3~{E})-4,8-dimethylnona-1,3,7-triene

> <PUBCHEM_IUPAC_TRADITIONAL_NAME>
(3~{E})-4,8-dimethylnona-1,3,7-triene

> <PUBCHEM_IUPAC_INCHI>
InChI=1S/C11H18/c1-5-7-11(4)9-6-8-10(2)3/h5,7-8H,1,6,9H2,2-4H3/b11-7+

> <PUBCHEM_IUPAC_INCHIKEY>
LUKZREJJLWEWQM-YRNVUSSQSA-N

> <PUBCHEM_XLOGP3_AA>
4.6

> <PUBCHEM_EXACT_MASS>
150.141

> <PUBCHEM_MOLECULAR_FORMULA>
C11H18

> <PUBCHEM_MOLECULAR_WEIGHT>
150.265

> <PUBCHEM_OPENEYE_CAN_SMILES>
CC(=CCCC(=CC=C)C)C

> <PUBCHEM_OPENEYE_ISO_SMILES>
CC(=CCC/C(=C/C=C)/C)C

> <PUBCHEM_CACTVS_TPSA>
0

> <PUBCHEM_MONOISOTOPIC_WEIGHT>
150.141

> <PUBCHEM_TOTAL_CHARGE>
0

> <PUBCHEM_HEAVY_ATOM_COUNT>
11

> <PUBCHEM_ATOM_DEF_STEREO_COUNT>
0

> <PUBCHEM_ATOM_UDEF_STEREO_COUNT>
0

> <PUBCHEM_BOND_DEF_STEREO_COUNT>
1

> <PUBCHEM_BOND_UDEF_STEREO_COUNT>
0

> <PUBCHEM_ISOTOPIC_ATOM_COUNT>
0

> <PUBCHEM_COMPONENT_COUNT>
1

> <PUBCHEM_CACTVS_TAUTO_COUNT>
1

> <PUBCHEM_COORDINATE_TYPE>
1 __ 5 __ 255

$$$$
12589924
 OpenBabel02201912233D

 29 28  0  0  0  0  0  0  0  0999 V2000
    1.0249    0.0175   -0.1370 C   0  0  0  0  0  0  0  0  0  0  0  0
    0.3917    1.4068   -0.2976 C   0  0  0  0  0  0  0  0  0  0  0  0
    0.5578   -0.9594   -1.1950 C   0  0  0  0  0  0  0  0  0  0  0  0
    0.9238    2.3530    0.7476 C   0  0  0  0  0  0  0  0  0  0  0  0
    1.5451    3.5286    0.5315 C   0  0  0  0  0  0  0  0  0  0  0  0
    1.4095   -1.0256   -2.4366 C   0  0  0  0  0  0  0  0  0  0  0  0
   -0.5159   -1.7650   -1.0872 C   0  0  0  0  0  0  0  0  0  0  0  0
    2.0728    4.3483    1.6773 C   0  0  0  0  0  0  0  0  0  0  0  0
    1.7669    4.1074   -0.8368 C   0  0  0  0  0  0  0  0  0  0  0  0
   -1.4349   -1.8203    0.0280 C   0  0  0  0  0  0  0  0  0  0  0  0
   -2.4623   -2.6756    0.0778 C   0  0  0  0  0  0  0  0  0  0  0  0
    0.8152   -0.3755    0.8656 H   0  0  0  0  0  0  0  0  0  0  0  0
    2.1199    0.0983   -0.1811 H   0  0  0  0  0  0  0  0  0  0  0  0
    0.5712    1.7826   -1.3107 H   0  0  0  0  0  0  0  0  0  0  0  0
   -0.6962    1.3379   -0.1767 H   0  0  0  0  0  0  0  0  0  0  0  0
    0.7839    2.0185    1.7753 H   0  0  0  0  0  0  0  0  0  0  0  0
    2.1017   -1.8713   -2.3732 H   0  0  0  0  0  0  0  0  0  0  0  0
    0.7938   -1.1402   -3.3351 H   0  0  0  0  0  0  0  0  0  0  0  0
    2.0001   -0.1122   -2.5665 H   0  0  0  0  0  0  0  0  0  0  0  0
   -0.7299   -2.4501   -1.9070 H   0  0  0  0  0  0  0  0  0  0  0  0
    3.1525    4.4936    1.5689 H   0  0  0  0  0  0  0  0  0  0  0  0
    1.5880    5.3292    1.7004 H   0  0  0  0  0  0  0  0  0  0  0  0
    1.9007    3.8664    2.6460 H   0  0  0  0  0  0  0  0  0  0  0  0
    2.3859    3.4417   -1.4463 H   0  0  0  0  0  0  0  0  0  0  0  0
    0.8104    4.2777   -1.3439 H   0  0  0  0  0  0  0  0  0  0  0  0
    2.2802    5.0730   -0.7821 H   0  0  0  0  0  0  0  0  0  0  0  0
   -1.2935   -1.1325    0.8545 H   0  0  0  0  0  0  0  0  0  0  0  0
   -3.1305   -2.6831    0.9326 H   0  0  0  0  0  0  0  0  0  0  0  0
   -2.6616   -3.3906   -0.7149 H   0  0  0  0  0  0  0  0  0  0  0  0
  1  2  1  0  0  0  0
  1  3  1  0  0  0  0
  1 12  1  0  0  0  0
  1 13  1  0  0  0  0
  2  4  1  0  0  0  0
  2 14  1  0  0  0  0
  2 15  1  0  0  0  0
  3  6  1  0  0  0  0
  3  7  2  0  0  0  0
  4  5  2  0  0  0  0
  4 16  1  0  0  0  0
  5  8  1  0  0  0  0
  5  9  1  0  0  0  0
  6 17  1  0  0  0  0
  6 18  1  0  0  0  0
  6 19  1  0  0  0  0
  7 10  1  0  0  0  0
  7 20  1  0  0  0  0
  8 21  1  0  0  0  0
  8 22  1  0  0  0  0
  8 23  1  0  0  0  0
  9 24  1  0  0  0  0
  9 25  1  0  0  0  0
  9 26  1  0  0  0  0
 10 11  2  0  0  0  0
 10 27  1  0  0  0  0
 11 28  1  0  0  0  0
 11 29  1  0  0  0  0
M  END
> <PUBCHEM_COMPOUND_CID>
12589924

> <PUBCHEM_COMPOUND_CANONICALIZED>
1

> <PUBCHEM_CACTVS_COMPLEXITY>
167

> <PUBCHEM_CACTVS_HBOND_ACCEPTOR>
0

> <PUBCHEM_CACTVS_HBOND_DONOR>
0

> <PUBCHEM_CACTVS_ROTATABLE_BOND>
4

> <PUBCHEM_CACTVS_SUBSKEYS>
AAADceBwAAAAAAAAAAAAAAAAAAAAAAAAAAAAAAAAAAAAAAAAAAAAGAAAAAAADACAAAACAAAAAACAAiBCAAAAAAAgAAAICAAAAAgIAAIAAQAAAAAAgAAIgAIAAAAAAAAAAAAAAAAAAAAAAAAAAAAAAAAAAA==

> <PUBCHEM_IUPAC_OPENEYE_NAME>
(3~{Z})-4,8-dimethylnona-1,3,7-triene

> <PUBCHEM_IUPAC_CAS_NAME>
(3~{Z})-4,8-dimethylnona-1,3,7-triene

> <PUBCHEM_IUPAC_NAME>
(3~{Z})-4,8-dimethylnona-1,3,7-triene

> <PUBCHEM_IUPAC_SYSTEMATIC_NAME>
(3~{Z})-4,8-dimethylnona-1,3,7-triene

> <PUBCHEM_IUPAC_TRADITIONAL_NAME>
(3~{Z})-4,8-dimethylnona-1,3,7-triene

> <PUBCHEM_IUPAC_INCHI>
InChI=1S/C11H18/c1-5-7-11(4)9-6-8-10(2)3/h5,7-8H,1,6,9H2,2-4H3/b11-7-

> <PUBCHEM_IUPAC_INCHIKEY>
LUKZREJJLWEWQM-XFFZJAGNSA-N

> <PUBCHEM_XLOGP3_AA>
4.6

> <PUBCHEM_EXACT_MASS>
150.141

> <PUBCHEM_MOLECULAR_FORMULA>
C11H18

> <PUBCHEM_MOLECULAR_WEIGHT>
150.265

> <PUBCHEM_OPENEYE_CAN_SMILES>
CC(=CCCC(=CC=C)C)C

> <PUBCHEM_OPENEYE_ISO_SMILES>
CC(=CCC/C(=C\C=C)/C)C

> <PUBCHEM_CACTVS_TPSA>
0

> <PUBCHEM_MONOISOTOPIC_WEIGHT>
150.141

> <PUBCHEM_TOTAL_CHARGE>
0

> <PUBCHEM_HEAVY_ATOM_COUNT>
11

> <PUBCHEM_ATOM_DEF_STEREO_COUNT>
0

> <PUBCHEM_ATOM_UDEF_STEREO_COUNT>
0

> <PUBCHEM_BOND_DEF_STEREO_COUNT>
1

> <PUBCHEM_BOND_UDEF_STEREO_COUNT>
0

> <PUBCHEM_ISOTOPIC_ATOM_COUNT>
0

> <PUBCHEM_COMPONENT_COUNT>
1

> <PUBCHEM_CACTVS_TAUTO_COUNT>
-1

> <PUBCHEM_COORDINATE_TYPE>
1 __ 5 __ 255

$$$$
91749831
 OpenBabel02201912233D

 39 41  0  0  1  0  0  0  0  0999 V2000
    0.0216   -0.0156   -0.0070 C   0  0  2  0  0  0  0  0  0  0  0  0
   -0.9490   -1.2160    0.1824 C   0  0  1  0  0  0  0  0  0  0  0  0
    0.9805   -0.4428   -1.1774 C   0  0  2  0  0  0  0  0  0  0  0  0
    0.9979    0.1308    1.2180 C   0  0  1  0  0  0  0  0  0  0  0  0
   -0.8683    1.2135   -0.2722 C   0  0  0  0  0  0  0  0  0  0  0  0
   -2.3854   -0.7005    0.0415 C   0  0  2  0  0  0  0  0  0  0  0  0
   -0.5668   -2.2460   -0.8891 C   0  0  0  0  0  0  0  0  0  0  0  0
    0.9110   -1.9792   -1.1501 C   0  0  0  0  0  0  0  0  0  0  0  0
   -2.2770    0.7028   -0.5508 C   0  0  0  0  0  0  0  0  0  0  0  0
    2.3120    0.0925   -0.7329 C   0  0  0  0  0  0  0  0  0  0  0  0
    2.3166    0.4449    0.5595 C   0  0  0  0  0  0  0  0  0  0  0  0
    0.6479    0.0788   -2.5801 C   0  0  0  0  0  0  0  0  0  0  0  0
    0.5890    1.1166    2.3103 C   0  0  0  0  0  0  0  0  0  0  0  0
   -3.1137   -0.7159    1.3813 C   0  0  0  0  0  0  0  0  0  0  0  0
    3.4841    0.9665    1.3237 C   0  0  0  0  0  0  0  0  0  0  0  0
   -0.8101   -1.6859    1.1641 H   0  0  0  0  0  0  0  0  0  0  0  0
    1.1226   -0.8452    1.7096 H   0  0  0  0  0  0  0  0  0  0  0  0
   -0.5161    1.8364   -1.0987 H   0  0  0  0  0  0  0  0  0  0  0  0
   -0.9299    1.8919    0.5800 H   0  0  0  0  0  0  0  0  0  0  0  0
   -2.9702   -1.3313   -0.6384 H   0  0  0  0  0  0  0  0  0  0  0  0
   -0.7376   -3.2696   -0.5476 H   0  0  0  0  0  0  0  0  0  0  0  0
   -1.1444   -2.1073   -1.8125 H   0  0  0  0  0  0  0  0  0  0  0  0
    1.2470   -2.4451   -2.0810 H   0  0  0  0  0  0  0  0  0  0  0  0
    1.5079   -2.4037   -0.3326 H   0  0  0  0  0  0  0  0  0  0  0  0
   -2.4486    0.6651   -1.6318 H   0  0  0  0  0  0  0  0  0  0  0  0
   -3.0240    1.3885   -0.1334 H   0  0  0  0  0  0  0  0  0  0  0  0
    3.1734    0.1570   -1.3861 H   0  0  0  0  0  0  0  0  0  0  0  0
    0.8162    1.1571   -2.6722 H   0  0  0  0  0  0  0  0  0  0  0  0
    1.2902   -0.3986   -3.3351 H   0  0  0  0  0  0  0  0  0  0  0  0
   -0.3895   -0.1273   -2.8588 H   0  0  0  0  0  0  0  0  0  0  0  0
   -0.4379    0.9326    2.6407 H   0  0  0  0  0  0  0  0  0  0  0  0
    1.2346    1.0063    3.1868 H   0  0  0  0  0  0  0  0  0  0  0  0
    0.6750    2.1588    1.9818 H   0  0  0  0  0  0  0  0  0  0  0  0
   -4.1202   -0.2985    1.2860 H   0  0  0  0  0  0  0  0  0  0  0  0
   -3.2145   -1.7442    1.7466 H   0  0  0  0  0  0  0  0  0  0  0  0
   -2.5772   -0.1400    2.1460 H   0  0  0  0  0  0  0  0  0  0  0  0
    3.2730    1.9675    1.7135 H   0  0  0  0  0  0  0  0  0  0  0  0
    3.7151    0.3058    2.1649 H   0  0  0  0  0  0  0  0  0  0  0  0
    4.3786    1.0374    0.6961 H   0  0  0  0  0  0  0  0  0  0  0  0
  1  2  1  1  0  0  0
  1  5  1  0  0  0  0
  2  6  1  6  0  0  0
  2  7  1  0  0  0  0
  2 16  1  0  0  0  0
  3  1  1  1  0  0  0
  3  8  1  0  0  0  0
  3 10  1  0  0  0  0
  3 12  1  0  0  0  0
  4  1  1  6  0  0  0
  4 11  1  0  0  0  0
  4 13  1  0  0  0  0
  4 17  1  0  0  0  0
  5  9  1  0  0  0  0
  5 18  1  0  0  0  0
  5 19  1  0  0  0  0
  6  9  1  0  0  0  0
  6 14  1  0  0  0  0
  6 20  1  6  0  0  0
  7  8  1  0  0  0  0
  7 21  1  0  0  0  0
  7 22  1  0  0  0  0
  8 23  1  0  0  0  0
  8 24  1  0  0  0  0
  9 25  1  0  0  0  0
  9 26  1  0  0  0  0
 10 11  2  0  0  0  0
 10 27  1  0  0  0  0
 11 15  1  0  0  0  0
 12 28  1  0  0  0  0
 12 29  1  0  0  0  0
 12 30  1  0  0  0  0
 13 31  1  0  0  0  0
 13 32  1  0  0  0  0
 13 33  1  0  0  0  0
 14 34  1  0  0  0  0
 14 35  1  0  0  0  0
 14 36  1  0  0  0  0
 15 37  1  0  0  0  0
 15 38  1  0  0  0  0
 15 39  1  0  0  0  0
M  END
> <PUBCHEM_COMPOUND_CID>
91749831

> <PUBCHEM_COMPOUND_CANONICALIZED>
1

> <PUBCHEM_CACTVS_COMPLEXITY>
327

> <PUBCHEM_CACTVS_HBOND_ACCEPTOR>
0

> <PUBCHEM_CACTVS_HBOND_DONOR>
0

> <PUBCHEM_CACTVS_ROTATABLE_BOND>
0

> <PUBCHEM_CACTVS_SUBSKEYS>
AAADceBwAAAAAAAAAAAAAAAAAAAAAYMEAAAAAAAAAAAYIAAAAAAAGAAAAAAADwCAAAACAAAAAACAAiBCAAAAAAAgAAAACAAAAAgAAAIAAQAAAAAAgAAIAAMAgMAPgAAAAAAAAAAAAAAAAAAAAQAACAAAAA==

> <PUBCHEM_IUPAC_OPENEYE_NAME>
(1~{S},2~{R},5~{R},8~{R},9~{S})-2,3,5,9-tetramethyltricyclo[6.3.0.0^{1,5}]undec-3-ene

> <PUBCHEM_IUPAC_CAS_NAME>
(1~{S},2~{R},5~{R},8~{R},9~{S})-2,3,5,9-tetramethyltricyclo[6.3.0.0^{1,5}]undec-3-ene

> <PUBCHEM_IUPAC_NAME>
(1~{S},2~{R},5~{R},8~{R},9~{S})-2,3,5,9-tetramethyltricyclo[6.3.0.0^{1,5}]undec-3-ene

> <PUBCHEM_IUPAC_SYSTEMATIC_NAME>
(1~{S},2~{R},5~{R},8~{R},9~{S})-2,3,5,9-tetramethyltricyclo[6.3.0.0^{1,5}]undec-3-ene

> <PUBCHEM_IUPAC_TRADITIONAL_NAME>
(1~{S},2~{R},5~{R},8~{R},9~{S})-2,3,5,9-tetramethyltricyclo[6.3.0.0^{1,5}]undec-3-ene

> <PUBCHEM_IUPAC_INCHI>
InChI=1S/C15H24/c1-10-5-8-15-12(3)11(2)9-14(15,4)7-6-13(10)15/h9-10,12-13H,5-8H2,1-4H3/t10-,12+,13+,14+,15+/m0/s1

> <PUBCHEM_IUPAC_INCHIKEY>
OVRIZVNVMIWWMN-URWOTSEESA-N

> <PUBCHEM_XLOGP3_AA>
4.8

> <PUBCHEM_EXACT_MASS>
204.188

> <PUBCHEM_MOLECULAR_FORMULA>
C15H24

> <PUBCHEM_MOLECULAR_WEIGHT>
204.357

> <PUBCHEM_OPENEYE_CAN_SMILES>
CC1CCC23C1CCC2(C=C(C3C)C)C

> <PUBCHEM_OPENEYE_ISO_SMILES>
C[C@H]1CC[C@@]23[C@@H]1CC[C@@]2(C=C([C@H]3C)C)C

> <PUBCHEM_CACTVS_TPSA>
0

> <PUBCHEM_MONOISOTOPIC_WEIGHT>
204.188

> <PUBCHEM_TOTAL_CHARGE>
0

> <PUBCHEM_HEAVY_ATOM_COUNT>
15

> <PUBCHEM_ATOM_DEF_STEREO_COUNT>
5

> <PUBCHEM_ATOM_UDEF_STEREO_COUNT>
0

> <PUBCHEM_BOND_DEF_STEREO_COUNT>
0

> <PUBCHEM_BOND_UDEF_STEREO_COUNT>
0

> <PUBCHEM_ISOTOPIC_ATOM_COUNT>
0

> <PUBCHEM_COMPONENT_COUNT>
1

> <PUBCHEM_CACTVS_TAUTO_COUNT>
-1

> <PUBCHEM_COORDINATE_TYPE>
1 __ 5 __ 255

> <PUBCHEM_BONDANNOTATIONS>
1  5  6 __ 2  16  5 __ 3  12  6 __ 4  13  6 __ 6  14  5

$$$$
91749831_2
 OpenBabel02201912233D

 39 41  0  0  1  0  0  0  0  0999 V2000
    0.0216   -0.0156   -0.0070 C   0  0  2  0  0  0  0  0  0  0  0  0
   -0.9490   -1.2160    0.1824 C   0  0  1  0  0  0  0  0  0  0  0  0
    0.9805   -0.4428   -1.1774 C   0  0  2  0  0  0  0  0  0  0  0  0
    0.9979    0.1308    1.2180 C   0  0  1  0  0  0  0  0  0  0  0  0
   -0.8683    1.2135   -0.2722 C   0  0  0  0  0  0  0  0  0  0  0  0
   -2.3854   -0.7005    0.0415 C   0  0  2  0  0  0  0  0  0  0  0  0
   -0.5668   -2.2460   -0.8891 C   0  0  0  0  0  0  0  0  0  0  0  0
    0.9110   -1.9792   -1.1501 C   0  0  0  0  0  0  0  0  0  0  0  0
   -2.2770    0.7028   -0.5508 C   0  0  0  0  0  0  0  0  0  0  0  0
    2.3120    0.0925   -0.7329 C   0  0  0  0  0  0  0  0  0  0  0  0
    2.3166    0.4449    0.5595 C   0  0  0  0  0  0  0  0  0  0  0  0
    0.6479    0.0788   -2.5801 C   0  0  0  0  0  0  0  0  0  0  0  0
    0.5890    1.1166    2.3103 C   0  0  0  0  0  0  0  0  0  0  0  0
   -3.1137   -0.7159    1.3813 C   0  0  0  0  0  0  0  0  0  0  0  0
    3.4841    0.9665    1.3237 C   0  0  0  0  0  0  0  0  0  0  0  0
   -0.8101   -1.6859    1.1641 H   0  0  0  0  0  0  0  0  0  0  0  0
    1.1226   -0.8452    1.7096 H   0  0  0  0  0  0  0  0  0  0  0  0
   -0.5161    1.8364   -1.0987 H   0  0  0  0  0  0  0  0  0  0  0  0
   -0.9299    1.8919    0.5800 H   0  0  0  0  0  0  0  0  0  0  0  0
   -2.9702   -1.3313   -0.6384 H   0  0  0  0  0  0  0  0  0  0  0  0
   -0.7376   -3.2696   -0.5476 H   0  0  0  0  0  0  0  0  0  0  0  0
   -1.1444   -2.1073   -1.8125 H   0  0  0  0  0  0  0  0  0  0  0  0
    1.2470   -2.4451   -2.0810 H   0  0  0  0  0  0  0  0  0  0  0  0
    1.5079   -2.4037   -0.3326 H   0  0  0  0  0  0  0  0  0  0  0  0
   -2.4486    0.6651   -1.6318 H   0  0  0  0  0  0  0  0  0  0  0  0
   -3.0240    1.3885   -0.1334 H   0  0  0  0  0  0  0  0  0  0  0  0
    3.1734    0.1570   -1.3861 H   0  0  0  0  0  0  0  0  0  0  0  0
    0.8162    1.1571   -2.6722 H   0  0  0  0  0  0  0  0  0  0  0  0
    1.2902   -0.3986   -3.3351 H   0  0  0  0  0  0  0  0  0  0  0  0
   -0.3895   -0.1273   -2.8588 H   0  0  0  0  0  0  0  0  0  0  0  0
   -0.4379    0.9326    2.6407 H   0  0  0  0  0  0  0  0  0  0  0  0
    1.2346    1.0063    3.1868 H   0  0  0  0  0  0  0  0  0  0  0  0
    0.6750    2.1588    1.9818 H   0  0  0  0  0  0  0  0  0  0  0  0
   -4.1202   -0.2985    1.2860 H   0  0  0  0  0  0  0  0  0  0  0  0
   -3.2145   -1.7442    1.7466 H   0  0  0  0  0  0  0  0  0  0  0  0
   -2.5772   -0.1400    2.1460 H   0  0  0  0  0  0  0  0  0  0  0  0
    3.2730    1.9675    1.7135 H   0  0  0  0  0  0  0  0  0  0  0  0
    3.7151    0.3058    2.1649 H   0  0  0  0  0  0  0  0  0  0  0  0
    4.3786    1.0374    0.6961 H   0  0  0  0  0  0  0  0  0  0  0  0
  1  2  1  1  0  0  0
  1  5  1  0  0  0  0
  2  6  1  6  0  0  0
  2  7  1  0  0  0  0
  2 16  1  0  0  0  0
  3  1  1  1  0  0  0
  3  8  1  0  0  0  0
  3 10  1  0  0  0  0
  3 12  1  0  0  0  0
  4  1  1  6  0  0  0
  4 11  1  0  0  0  0
  4 13  1  0  0  0  0
  4 17  1  0  0  0  0
  5  9  1  0  0  0  0
  5 18  1  0  0  0  0
  5 19  1  0  0  0  0
  6  9  1  0  0  0  0
  6 14  1  0  0  0  0
  6 20  1  6  0  0  0
  7  8  1  0  0  0  0
  7 21  1  0  0  0  0
  7 22  1  0  0  0  0
  8 23  1  0  0  0  0
  8 24  1  0  0  0  0
  9 25  1  0  0  0  0
  9 26  1  0  0  0  0
 10 11  2  0  0  0  0
 10 27  1  0  0  0  0
 11 15  1  0  0  0  0
 12 28  1  0  0  0  0
 12 29  1  0  0  0  0
 12 30  1  0  0  0  0
 13 31  1  0  0  0  0
 13 32  1  0  0  0  0
 13 33  1  0  0  0  0
 14 34  1  0  0  0  0
 14 35  1  0  0  0  0
 14 36  1  0  0  0  0
 15 37  1  0  0  0  0
 15 38  1  0  0  0  0
 15 39  1  0  0  0  0
M  END
> <PUBCHEM_COMPOUND_CID>
91749831

> <PUBCHEM_COMPOUND_CANONICALIZED>
1

> <PUBCHEM_CACTVS_COMPLEXITY>
327

> <PUBCHEM_CACTVS_HBOND_ACCEPTOR>
0

> <PUBCHEM_CACTVS_HBOND_DONOR>
0

> <PUBCHEM_CACTVS_ROTATABLE_BOND>
0

> <PUBCHEM_CACTVS_SUBSKEYS>
AAADceBwAAAAAAAAAAAAAAAAAAAAAYMEAAAAAAAAAAAYIAAAAAAAGAAAAAAADwCAAAACAAAAAACAAiBCAAAAAAAgAAAACAAAAAgAAAIAAQAAAAAAgAAIAAMAgMAPgAAAAAAAAAAAAAAAAAAAAQAACAAAAA==

> <PUBCHEM_IUPAC_OPENEYE_NAME>
(1~{S},2~{R},5~{R},8~{R},9~{S})-2,3,5,9-tetramethyltricyclo[6.3.0.0^{1,5}]undec-3-ene

> <PUBCHEM_IUPAC_CAS_NAME>
(1~{S},2~{R},5~{R},8~{R},9~{S})-2,3,5,9-tetramethyltricyclo[6.3.0.0^{1,5}]undec-3-ene

> <PUBCHEM_IUPAC_NAME>
(1~{S},2~{R},5~{R},8~{R},9~{S})-2,3,5,9-tetramethyltricyclo[6.3.0.0^{1,5}]undec-3-ene

> <PUBCHEM_IUPAC_SYSTEMATIC_NAME>
(1~{S},2~{R},5~{R},8~{R},9~{S})-2,3,5,9-tetramethyltricyclo[6.3.0.0^{1,5}]undec-3-ene

> <PUBCHEM_IUPAC_TRADITIONAL_NAME>
(1~{S},2~{R},5~{R},8~{R},9~{S})-2,3,5,9-tetramethyltricyclo[6.3.0.0^{1,5}]undec-3-ene

> <PUBCHEM_IUPAC_INCHI>
InChI=1S/C15H24/c1-10-5-8-15-12(3)11(2)9-14(15,4)7-6-13(10)15/h9-10,12-13H,5-8H2,1-4H3/t10-,12+,13+,14+,15+/m0/s1

> <PUBCHEM_IUPAC_INCHIKEY>
OVRIZVNVMIWWMN-URWOTSEESA-N

> <PUBCHEM_XLOGP3_AA>
4.8

> <PUBCHEM_EXACT_MASS>
204.188

> <PUBCHEM_MOLECULAR_FORMULA>
C15H24

> <PUBCHEM_MOLECULAR_WEIGHT>
204.357

> <PUBCHEM_OPENEYE_CAN_SMILES>
CC1CCC23C1CCC2(C=C(C3C)C)C

> <PUBCHEM_OPENEYE_ISO_SMILES>
C[C@H]1CC[C@@]23[C@@H]1CC[C@@]2(C=C([C@H]3C)C)C

> <PUBCHEM_CACTVS_TPSA>
0

> <PUBCHEM_MONOISOTOPIC_WEIGHT>
204.188

> <PUBCHEM_TOTAL_CHARGE>
0

> <PUBCHEM_HEAVY_ATOM_COUNT>
15

> <PUBCHEM_ATOM_DEF_STEREO_COUNT>
5

> <PUBCHEM_ATOM_UDEF_STEREO_COUNT>
0

> <PUBCHEM_BOND_DEF_STEREO_COUNT>
0

> <PUBCHEM_BOND_UDEF_STEREO_COUNT>
0

> <PUBCHEM_ISOTOPIC_ATOM_COUNT>
0

> <PUBCHEM_COMPONENT_COUNT>
1

> <PUBCHEM_CACTVS_TAUTO_COUNT>
-1

> <PUBCHEM_COORDINATE_TYPE>
1 __ 5 __ 255

> <PUBCHEM_BONDANNOTATIONS>
1  5  6 __ 2  16  5 __ 3  12  6 __ 4  13  6 __ 6  14  5

$$$$
12306048
 OpenBabel02201912233D

 39 40  0  0  1  0  0  0  0  0999 V2000
   -1.3938       NaN   -0.5069 C   0  0  1  0  0  0  0  0  0  0  0  0
   -1.4818       NaN   -0.9288 C   0  0  1  0  0  0  0  0  0  0  0  0
   -1.5242       NaN    0.8847 C   0  0  1  0  0  0  0  0  0  0  0  0
   -0.0054       NaN    1.4233 C   0  0  0  0  0  0  0  0  0  0  0  0
   -0.6377       NaN   -1.1760 C   0  0  0  0  0  0  0  0  0  0  0  0
   -0.5374       NaN   -1.9859 C   0  0  0  0  0  0  0  0  0  0  0  0
    0.7290       NaN    0.4632 C   0  0  0  0  0  0  0  0  0  0  0  0
   -1.6561       NaN    1.4397 C   0  0  0  0  0  0  0  0  0  0  0  0
    0.5421       NaN    0.7310 C   0  0  0  0  0  0  0  0  0  0  0  0
    0.2952       NaN   -0.9477 C   0  0  0  0  0  0  0  0  0  0  0  0
   -0.6727       NaN    1.8899 C   0  0  0  0  0  0  0  0  0  0  0  0
       NaN       NaN       NaN C   0  0  0  0  0  0  0  0  0  0  0  0
       NaN       NaN       NaN C   0  0  0  0  0  0  0  0  0  0  0  0
    0.7604       NaN    1.3495 C   0  0  0  0  0  0  0  0  0  0  0  0
   -0.2582       NaN    2.3462 C   0  0  0  0  0  0  0  0  0  0  0  0
    2.9864       NaN   -0.2721 H   0  0  0  0  0  0  0  0  0  0  0  0
   -1.5175       NaN   -0.8611 H   0  0  0  0  0  0  0  0  0  0  0  0
   -1.0844       NaN    0.8523 H   0  0  0  0  0  0  0  0  0  0  0  0
    1.4891       NaN    0.8944 H   0  0  0  0  0  0  0  0  0  0  0  0
    0.2771       NaN    2.7002 H   0  0  0  0  0  0  0  0  0  0  0  0
   -0.6924       NaN   -0.9588 H   0  0  0  0  0  0  0  0  0  0  0  0
   -1.5790       NaN   -1.7501 H   0  0  0  0  0  0  0  0  0  0  0  0
       NaN       NaN       NaN H   0  0  0  0  0  0  0  0  0  0  0  0
   -2.3593       NaN    1.4293 H   0  0  0  0  0  0  0  0  0  0  0  0
    0.3157       NaN    0.7627 H   0  0  0  0  0  0  0  0  0  0  0  0
    1.8863       NaN    1.1985 H   0  0  0  0  0  0  0  0  0  0  0  0
    1.2912       NaN   -1.1816 H   0  0  0  0  0  0  0  0  0  0  0  0
       NaN       NaN       NaN H   0  0  0  0  0  0  0  0  0  0  0  0
       NaN       NaN       NaN H   0  0  0  0  0  0  0  0  0  0  0  0
       NaN       NaN       NaN H   0  0  0  0  0  0  0  0  0  0  0  0
       NaN       NaN       NaN H   0  0  0  0  0  0  0  0  0  0  0  0
       NaN       NaN       NaN H   0  0  0  0  0  0  0  0  0  0  0  0
       NaN       NaN       NaN H   0  0  0  0  0  0  0  0  0  0  0  0
   -0.3617       NaN    1.3090 H   0  0  0  0  0  0  0  0  0  0  0  0
    1.5631       NaN    1.4257 H   0  0  0  0  0  0  0  0  0  0  0  0
    0.2558       NaN    2.5073 H   0  0  0  0  0  0  0  0  0  0  0  0
   -0.1649       NaN    2.0629 H   0  0  0  0  0  0  0  0  0  0  0  0
    0.3723       NaN    2.5088 H   0  0  0  0  0  0  0  0  0  0  0  0
   -0.9022       NaN    1.2874 H   0  0  0  0  0  0  0  0  0  0  0  0
  1  2  1  1  0  0  0
  1  8  1  0  0  0  0
  1 16  1  0  0  0  0
  2  5  1  0  0  0  0
  2 17  1  1  0  0  0
  2  6  1  0  0  0  0
  3  1  1  1  0  0  0
  3  4  1  0  0  0  0
  3  7  1  0  0  0  0
  3 18  1  0  0  0  0
  4  9  1  0  0  0  0
  4 19  1  0  0  0  0
  4 20  1  0  0  0  0
  5 10  1  0  0  0  0
  5 21  1  0  0  0  0
  5 22  1  0  0  0  0
  6 12  1  0  0  0  0
  6 13  1  0  0  0  0
  6 23  1  0  0  0  0
  7 10  2  0  0  0  0
  7 14  1  0  0  0  0
  8 11  2  0  0  0  0
  8 24  1  0  0  0  0
  9 11  1  0  0  0  0
  9 25  1  0  0  0  0
  9 26  1  0  0  0  0
 10 27  1  0  0  0  0
 11 15  1  0  0  0  0
 12 28  1  0  0  0  0
 12 29  1  0  0  0  0
 12 30  1  0  0  0  0
 13 31  1  0  0  0  0
 13 32  1  0  0  0  0
 13 33  1  0  0  0  0
 14 34  1  0  0  0  0
 14 35  1  0  0  0  0
 14 36  1  0  0  0  0
 15 37  1  0  0  0  0
 15 38  1  0  0  0  0
 15 39  1  0  0  0  0
M  END
> <PUBCHEM_COMPOUND_CID>
12306048

> <PUBCHEM_COMPOUND_CANONICALIZED>
1

> <PUBCHEM_CACTVS_COMPLEXITY>
293

> <PUBCHEM_CACTVS_HBOND_ACCEPTOR>
0

> <PUBCHEM_CACTVS_HBOND_DONOR>
0

> <PUBCHEM_CACTVS_ROTATABLE_BOND>
1

> <PUBCHEM_CACTVS_SUBSKEYS>
AAADceBwAAAAAAAAAAAAAAAAAAAAAAAAAAAgQAAAAAAAAACAAAAAGAAAAAAADQCAAAACAAAAAACAAiBCAAAAAAAgAAAACAAAAAgAAAIAAQAAAAAAgAAIAAMAgMAOgAAAAAAAAAAAAAAAAAAAAAAAAAAAAA==

> <PUBCHEM_IUPAC_OPENEYE_NAME>
(1~{S},4~{a}~{R},8~{a}~{R})-1-isopropyl-4,7-dimethyl-1,2,4~{a},5,6,8~{a}-hexahydronaphthalene

> <PUBCHEM_IUPAC_CAS_NAME>
(1~{S},4~{a}~{R},8~{a}~{R})-4,7-dimethyl-1-propan-2-yl-1,2,4~{a},5,6,8~{a}-hexahydronaphthalene

> <PUBCHEM_IUPAC_NAME>
(1~{S},4~{a}~{R},8~{a}~{R})-4,7-dimethyl-1-propan-2-yl-1,2,4~{a},5,6,8~{a}-hexahydronaphthalene

> <PUBCHEM_IUPAC_SYSTEMATIC_NAME>
(1~{S},4~{a}~{R},8~{a}~{R})-4,7-dimethyl-1-propan-2-yl-1,2,4~{a},5,6,8~{a}-hexahydronaphthalene

> <PUBCHEM_IUPAC_TRADITIONAL_NAME>
(1~{S},4~{a}~{R},8~{a}~{R})-1-isopropyl-4,7-dimethyl-1,2,4~{a},5,6,8~{a}-hexahydronaphthalene

> <PUBCHEM_IUPAC_INCHI>
InChI=1S/C15H24/c1-10(2)13-8-6-12(4)14-7-5-11(3)9-15(13)14/h6,9-10,13-15H,5,7-8H2,1-4H3/t13-,14-,15-/m0/s1

> <PUBCHEM_IUPAC_INCHIKEY>
QMAYBMKBYCGXDH-KKUMJFAQSA-N

> <PUBCHEM_XLOGP3_AA>
4.1

> <PUBCHEM_EXACT_MASS>
204.188

> <PUBCHEM_MOLECULAR_FORMULA>
C15H24

> <PUBCHEM_MOLECULAR_WEIGHT>
204.357

> <PUBCHEM_OPENEYE_CAN_SMILES>
CC1=CC2C(CC1)C(=CCC2C(C)C)C

> <PUBCHEM_OPENEYE_ISO_SMILES>
CC1=C[C@@H]2[C@@H](CC1)C(=CC[C@H]2C(C)C)C

> <PUBCHEM_CACTVS_TPSA>
0

> <PUBCHEM_MONOISOTOPIC_WEIGHT>
204.188

> <PUBCHEM_TOTAL_CHARGE>
0

> <PUBCHEM_HEAVY_ATOM_COUNT>
15

> <PUBCHEM_ATOM_DEF_STEREO_COUNT>
3

> <PUBCHEM_ATOM_UDEF_STEREO_COUNT>
0

> <PUBCHEM_BOND_DEF_STEREO_COUNT>
0

> <PUBCHEM_BOND_UDEF_STEREO_COUNT>
0

> <PUBCHEM_ISOTOPIC_ATOM_COUNT>
0

> <PUBCHEM_COMPONENT_COUNT>
1

> <PUBCHEM_CACTVS_TAUTO_COUNT>
1

> <PUBCHEM_COORDINATE_TYPE>
1 __ 5 __ 255

> <PUBCHEM_BONDANNOTATIONS>
1  16  6 __ 2  6  6 __ 3  18  5

$$$$
6431015
 OpenBabel02201912233D

 39 41  0  0  1  0  0  0  0  0999 V2000
    0.1287   -0.1737    0.5591 C   0  0  1  0  0  0  0  0  0  0  0  0
    0.2663   -1.0201   -0.7578 C   0  0  2  0  0  0  0  0  0  0  0  0
   -0.9317   -2.0191   -0.7899 C   0  0  0  0  0  0  0  0  0  0  0  0
   -1.8981   -1.3511    0.2485 C   0  0  1  0  0  0  0  0  0  0  0  0
   -0.9092   -0.9351    1.3726 C   0  0  0  0  0  0  0  0  0  0  0  0
    1.5465   -0.1671    1.1663 C   0  0  1  0  0  0  0  0  0  0  0  0
    1.7157   -1.5018   -0.8020 C   0  0  0  0  0  0  0  0  0  0  0  0
   -0.4896    1.2136    0.2173 C   0  0  0  0  0  0  0  0  0  0  0  0
    2.4443   -0.3776   -0.0576 C   0  0  0  0  0  0  0  0  0  0  0  0
   -2.5857   -0.0813   -0.2600 C   0  0  0  0  0  0  0  0  0  0  0  0
   -0.6630   -3.4668   -0.3174 C   0  0  0  0  0  0  0  0  0  0  0  0
   -1.4448   -2.1331   -2.2399 C   0  0  0  0  0  0  0  0  0  0  0  0
   -1.9228    1.0950   -0.2534 C   0  0  0  0  0  0  0  0  0  0  0  0
    1.9313    1.0388    2.0083 C   0  0  0  0  0  0  0  0  0  0  0  0
   -4.0135   -0.2107   -0.7163 C   0  0  0  0  0  0  0  0  0  0  0  0
    0.1597   -0.3356   -1.6134 H   0  0  0  0  0  0  0  0  0  0  0  0
   -2.6413   -2.0483    0.6458 H   0  0  0  0  0  0  0  0  0  0  0  0
   -0.4904   -1.8133    1.8817 H   0  0  0  0  0  0  0  0  0  0  0  0
   -1.3883   -0.3233    2.1515 H   0  0  0  0  0  0  0  0  0  0  0  0
    1.6582   -1.0522    1.8076 H   0  0  0  0  0  0  0  0  0  0  0  0
    1.8634   -2.4499   -0.2821 H   0  0  0  0  0  0  0  0  0  0  0  0
    2.0783   -1.6067   -1.8289 H   0  0  0  0  0  0  0  0  0  0  0  0
    0.1119    1.7090   -0.5586 H   0  0  0  0  0  0  0  0  0  0  0  0
   -0.4811    1.8670    1.0990 H   0  0  0  0  0  0  0  0  0  0  0  0
    3.4700   -0.6470    0.2076 H   0  0  0  0  0  0  0  0  0  0  0  0
    2.4832    0.5307   -0.6765 H   0  0  0  0  0  0  0  0  0  0  0  0
   -0.6050   -2.0826   -2.9445 H   0  0  0  0  0  0  0  0  0  0  0  0
   -2.1325   -1.3351   -2.5195 H   0  0  0  0  0  0  0  0  0  0  0  0
   -1.9527   -3.0852   -2.4299 H   0  0  0  0  0  0  0  0  0  0  0  0
    0.0561   -3.9820   -0.9629 H   0  0  0  0  0  0  0  0  0  0  0  0
   -0.3020   -3.5385    0.7129 H   0  0  0  0  0  0  0  0  0  0  0  0
   -1.5947   -4.0437   -0.3515 H   0  0  0  0  0  0  0  0  0  0  0  0
   -2.4037    2.0013   -0.6091 H   0  0  0  0  0  0  0  0  0  0  0  0
    2.8068    0.7994    2.6223 H   0  0  0  0  0  0  0  0  0  0  0  0
    2.1882    1.9079    1.3956 H   0  0  0  0  0  0  0  0  0  0  0  0
    1.1247    1.3172    2.6939 H   0  0  0  0  0  0  0  0  0  0  0  0
   -4.0573   -0.5558   -1.7518 H   0  0  0  0  0  0  0  0  0  0  0  0
   -4.5565   -0.9285   -0.0924 H   0  0  0  0  0  0  0  0  0  0  0  0
   -4.5359    0.7476   -0.6554 H   0  0  0  0  0  0  0  0  0  0  0  0
  1  2  1  6  0  0  0
  1  5  1  0  0  0  0
  1  8  1  0  0  0  0
  2  3  1  0  0  0  0
  2  7  1  0  0  0  0
  2 16  1  6  0  0  0
  3  4  1  0  0  0  0
  3 11  1  0  0  0  0
  3 12  1  0  0  0  0
  4  5  1  0  0  0  0
  4 10  1  0  0  0  0
  4 17  1  1  0  0  0
  5 18  1  0  0  0  0
  5 19  1  0  0  0  0
  6  1  1  6  0  0  0
  6  9  1  0  0  0  0
  6 14  1  0  0  0  0
  6 20  1  0  0  0  0
  7  9  1  0  0  0  0
  7 21  1  0  0  0  0
  7 22  1  0  0  0  0
  8 13  1  0  0  0  0
  8 23  1  0  0  0  0
  8 24  1  0  0  0  0
  9 25  1  0  0  0  0
  9 26  1  0  0  0  0
 10 13  2  0  0  0  0
 10 15  1  0  0  0  0
 11 30  1  0  0  0  0
 11 31  1  0  0  0  0
 11 32  1  0  0  0  0
 12 27  1  0  0  0  0
 12 28  1  0  0  0  0
 12 29  1  0  0  0  0
 13 33  1  0  0  0  0
 14 34  1  0  0  0  0
 14 35  1  0  0  0  0
 14 36  1  0  0  0  0
 15 37  1  0  0  0  0
 15 38  1  0  0  0  0
 15 39  1  0  0  0  0
M  END
> <PUBCHEM_COMPOUND_CID>
6431015

> <PUBCHEM_COMPOUND_CANONICALIZED>
1

> <PUBCHEM_CACTVS_COMPLEXITY>
323

> <PUBCHEM_CACTVS_HBOND_ACCEPTOR>
0

> <PUBCHEM_CACTVS_HBOND_DONOR>
0

> <PUBCHEM_CACTVS_ROTATABLE_BOND>
0

> <PUBCHEM_CACTVS_SUBSKEYS>
AAADceBwAAAAAAAAAAAAAAAAAAAAAYMAAAAgAAAABAAYAACAAAAAGAAAAAAADwCAAAACAAAAAACAAiBCAAAAAAAgAAAACAAAAAgAAAIAAQAAAAAAgAAIAAMAgMAPgAAAAAAAAAAAAAAAAAAAAQAACAAAAA==

> <PUBCHEM_IUPAC_OPENEYE_NAME>
(1~{S},2~{R},5~{S},7~{S})-2,6,6,8-tetramethyltricyclo[5.3.1.0^{1,5}]undec-8-ene

> <PUBCHEM_IUPAC_CAS_NAME>
(1~{S},2~{R},5~{S},7~{S})-2,6,6,8-tetramethyltricyclo[5.3.1.0^{1,5}]undec-8-ene

> <PUBCHEM_IUPAC_NAME>
(1~{S},2~{R},5~{S},7~{S})-2,6,6,8-tetramethyltricyclo[5.3.1.0^{1,5}]undec-8-ene

> <PUBCHEM_IUPAC_SYSTEMATIC_NAME>
(1~{S},2~{R},5~{S},7~{S})-2,6,6,8-tetramethyltricyclo[5.3.1.0^{1,5}]undec-8-ene

> <PUBCHEM_IUPAC_TRADITIONAL_NAME>
(1~{S},2~{R},5~{S},7~{S})-2,6,6,8-tetramethyltricyclo[5.3.1.0^{1,5}]undec-8-ene

> <PUBCHEM_IUPAC_INCHI>
InChI=1S/C15H24/c1-10-7-8-15-9-12(10)14(3,4)13(15)6-5-11(15)2/h7,11-13H,5-6,8-9H2,1-4H3/t11-,12+,13+,15+/m1/s1

> <PUBCHEM_IUPAC_INCHIKEY>
IRAQOCYXUMOFCW-OSFYFWSMSA-N

> <PUBCHEM_XLOGP3_AA>
4.6

> <PUBCHEM_EXACT_MASS>
204.188

> <PUBCHEM_MOLECULAR_FORMULA>
C15H24

> <PUBCHEM_MOLECULAR_WEIGHT>
204.357

> <PUBCHEM_OPENEYE_CAN_SMILES>
CC1CCC2C13CC=C(C(C3)C2(C)C)C

> <PUBCHEM_OPENEYE_ISO_SMILES>
C[C@@H]1CC[C@@H]2[C@]13CC=C([C@H](C3)C2(C)C)C

> <PUBCHEM_CACTVS_TPSA>
0

> <PUBCHEM_MONOISOTOPIC_WEIGHT>
204.188

> <PUBCHEM_TOTAL_CHARGE>
0

> <PUBCHEM_HEAVY_ATOM_COUNT>
15

> <PUBCHEM_ATOM_DEF_STEREO_COUNT>
4

> <PUBCHEM_ATOM_UDEF_STEREO_COUNT>
0

> <PUBCHEM_BOND_DEF_STEREO_COUNT>
0

> <PUBCHEM_BOND_UDEF_STEREO_COUNT>
0

> <PUBCHEM_ISOTOPIC_ATOM_COUNT>
0

> <PUBCHEM_COMPONENT_COUNT>
1

> <PUBCHEM_CACTVS_TAUTO_COUNT>
1

> <PUBCHEM_COORDINATE_TYPE>
1 __ 5 __ 255

> <PUBCHEM_BONDANNOTATIONS>
1  5  5 __ 2  16  6 __ 4  17  5 __ 6  14  6

$$$$
76319594
 OpenBabel02201912233D

 39 41  0  0  1  0  0  0  0  0999 V2000
    0.6408   -0.4887   -2.0702 C   0  0  3  0  0  0  0  0  0  0  0  0
    1.1047    1.3793   -1.1946 C   0  0  3  0  0  0  0  0  0  0  0  0
    0.9356   -0.2355   -0.5659 C   0  0  1  0  0  0  0  0  0  0  0  0
   -0.2356    0.9900   -1.8066 C   0  0  3  0  0  0  0  0  0  0  0  0
    2.1629    1.6909   -2.3208 C   0  0  3  0  0  0  0  0  0  0  0  0
    2.1357   -0.7707   -2.5176 C   0  0  0  0  0  0  0  0  0  0  0  0
    3.0310    0.4545   -2.3400 C   0  0  0  0  0  0  0  0  0  0  0  0
   -0.1967   -0.8677    0.2552 C   0  0  0  0  0  0  0  0  0  0  0  0
   -1.3211    1.0456   -0.7311 C   0  0  0  0  0  0  0  0  0  0  0  0
   -0.2960   -1.4381   -2.8099 C   0  0  0  0  0  0  0  0  0  0  0  0
    1.6651    2.1118   -3.7771 C   0  0  0  0  0  0  0  0  0  0  0  0
   -1.3379    0.0749    0.1847 C   0  0  0  0  0  0  0  0  0  0  0  0
   -2.0528    2.3251   -0.4477 C   0  0  0  0  0  0  0  0  0  0  0  0
    2.8242    2.7783   -4.5468 C   0  0  0  0  0  0  0  0  0  0  0  0
    1.1317    1.0379   -4.7593 C   0  0  0  0  0  0  0  0  0  0  0  0
    1.0873    2.1434   -0.4137 H   0  0  0  0  0  0  0  0  0  0  0  0
    1.8832   -0.6200   -0.1373 H   0  0  0  0  0  0  0  0  0  0  0  0
   -0.5678    1.5341   -2.6851 H   0  0  0  0  0  0  0  0  0  0  0  0
    2.7486    2.5402   -1.9440 H   0  0  0  0  0  0  0  0  0  0  0  0
    2.2018   -1.1456   -3.5404 H   0  0  0  0  0  0  0  0  0  0  0  0
    2.5591   -1.5952   -1.9234 H   0  0  0  0  0  0  0  0  0  0  0  0
    3.8077    0.4984   -3.1212 H   0  0  0  0  0  0  0  0  0  0  0  0
    3.5819    0.3965   -1.3937 H   0  0  0  0  0  0  0  0  0  0  0  0
    0.1175   -1.0186    1.2915 H   0  0  0  0  0  0  0  0  0  0  0  0
   -0.4993   -1.8486   -0.1253 H   0  0  0  0  0  0  0  0  0  0  0  0
    0.1586   -1.7831   -3.7477 H   0  0  0  0  0  0  0  0  0  0  0  0
   -0.5625   -2.3209   -2.2345 H   0  0  0  0  0  0  0  0  0  0  0  0
   -1.2128   -0.9228   -3.1178 H   0  0  0  0  0  0  0  0  0  0  0  0
    0.8801    2.8704   -3.6689 H   0  0  0  0  0  0  0  0  0  0  0  0
   -2.0174    0.1098    1.0471 H   0  0  0  0  0  0  0  0  0  0  0  0
   -1.5725    2.8348    0.4120 H   0  0  0  0  0  0  0  0  0  0  0  0
   -2.0257    3.0191   -1.2881 H   0  0  0  0  0  0  0  0  0  0  0  0
   -3.0980    2.1420   -0.1628 H   0  0  0  0  0  0  0  0  0  0  0  0
    0.1528    0.6459   -4.4851 H   0  0  0  0  0  0  0  0  0  0  0  0
    1.0008    1.4523   -5.7669 H   0  0  0  0  0  0  0  0  0  0  0  0
    1.8289    0.2108   -4.8994 H   0  0  0  0  0  0  0  0  0  0  0  0
    3.6322    2.0647   -4.7457 H   0  0  0  0  0  0  0  0  0  0  0  0
    2.4789    3.1436   -5.5233 H   0  0  0  0  0  0  0  0  0  0  0  0
    3.2303    3.6290   -4.0009 H   0  0  0  0  0  0  0  0  0  0  0  0
  1  4  1  0  0  0  0
  1  6  1  0  0  0  0
  1 10  1  0  0  0  0
  2  3  1  0  0  0  0
  2  4  1  0  0  0  0
  2  5  1  0  0  0  0
  2 16  1  0  0  0  0
  3  1  1  6  0  0  0
  3  8  1  0  0  0  0
  3 17  1  0  0  0  0
  4  9  1  0  0  0  0
  4 18  1  0  0  0  0
  5  7  1  0  0  0  0
  5 11  1  0  0  0  0
  5 19  1  0  0  0  0
  6  7  1  0  0  0  0
  6 20  1  0  0  0  0
  6 21  1  0  0  0  0
  7 22  1  0  0  0  0
  7 23  1  0  0  0  0
  8 12  1  0  0  0  0
  8 24  1  0  0  0  0
  8 25  1  0  0  0  0
  9 12  2  0  0  0  0
  9 13  1  0  0  0  0
 10 26  1  0  0  0  0
 10 27  1  0  0  0  0
 10 28  1  0  0  0  0
 11 14  1  0  0  0  0
 11 15  1  0  0  0  0
 11 29  1  0  0  0  0
 12 30  1  0  0  0  0
 13 31  1  0  0  0  0
 13 32  1  0  0  0  0
 13 33  1  0  0  0  0
 14 37  1  0  0  0  0
 14 38  1  0  0  0  0
 14 39  1  0  0  0  0
 15 34  1  0  0  0  0
 15 35  1  0  0  0  0
 15 36  1  0  0  0  0
M  END
> <PUBCHEM_COMPOUND_CID>
76319594

> <PUBCHEM_COMPOUND_CANONICALIZED>
1

> <PUBCHEM_CACTVS_COMPLEXITY>
312

> <PUBCHEM_CACTVS_HBOND_ACCEPTOR>
0

> <PUBCHEM_CACTVS_HBOND_DONOR>
0

> <PUBCHEM_CACTVS_ROTATABLE_BOND>
1

> <PUBCHEM_CACTVS_SUBSKEYS>
AAADceBwAAAAAAAAAAAAAAAAAABgAAAAAAAwYIEAAAAAAAAAAAAAGAAAAAAADwCAAAACAAAAAACAAiBCAAAAAAAgAAAACAAAAAgAAAIAAQAAAAAAgAAIAAMAgMAPgAAAAAAAAACAAAQAACAAAAAAAAAAAA==

> <PUBCHEM_IUPAC_OPENEYE_NAME>
(2~{R},6~{R})-8-isopropyl-1,3-dimethyl-tricyclo[4.4.0.0^{2,7}]dec-3-ene

> <PUBCHEM_IUPAC_CAS_NAME>
(2~{R},6~{R})-1,3-dimethyl-8-propan-2-yltricyclo[4.4.0.0^{2,7}]dec-3-ene

> <PUBCHEM_IUPAC_NAME>
(2~{R},6~{R})-1,3-dimethyl-8-propan-2-yltricyclo[4.4.0.0^{2,7}]dec-3-ene

> <PUBCHEM_IUPAC_SYSTEMATIC_NAME>
(2~{R},6~{R})-1,3-dimethyl-8-propan-2-yl-tricyclo[4.4.0.0^{2,7}]dec-3-ene

> <PUBCHEM_IUPAC_TRADITIONAL_NAME>
(2~{R},6~{R})-8-isopropyl-1,3-dimethyl-tricyclo[4.4.0.0^{2,7}]dec-3-ene

> <PUBCHEM_IUPAC_INCHI>
InChI=1S/C15H24/c1-9(2)11-7-8-15(4)12-6-5-10(3)14(15)13(11)12/h5,9,11-14H,6-8H2,1-4H3/t11?,12-,13?,14+,15?/m1/s1

> <PUBCHEM_IUPAC_INCHIKEY>
VLXDPFLIRFYIME-MFEYBKIZSA-N

> <PUBCHEM_XLOGP3_AA>
4.5

> <PUBCHEM_EXACT_MASS>
204.188

> <PUBCHEM_MOLECULAR_FORMULA>
C15H24

> <PUBCHEM_MOLECULAR_WEIGHT>
204.357

> <PUBCHEM_OPENEYE_CAN_SMILES>
CC1=CCC2C3C1C2(CCC3C(C)C)C

> <PUBCHEM_OPENEYE_ISO_SMILES>
CC1=CC[C@@H]2C3[C@H]1C2(CCC3C(C)C)C

> <PUBCHEM_CACTVS_TPSA>
0

> <PUBCHEM_MONOISOTOPIC_WEIGHT>
204.188

> <PUBCHEM_TOTAL_CHARGE>
0

> <PUBCHEM_HEAVY_ATOM_COUNT>
15

> <PUBCHEM_ATOM_DEF_STEREO_COUNT>
2

> <PUBCHEM_ATOM_UDEF_STEREO_COUNT>
3

> <PUBCHEM_BOND_DEF_STEREO_COUNT>
0

> <PUBCHEM_BOND_UDEF_STEREO_COUNT>
0

> <PUBCHEM_ISOTOPIC_ATOM_COUNT>
0

> <PUBCHEM_COMPONENT_COUNT>
1

> <PUBCHEM_CACTVS_TAUTO_COUNT>
1

> <PUBCHEM_COORDINATE_TYPE>
1 __ 5 __ 255

> <PUBCHEM_BONDANNOTATIONS>
1  4  3 __ 2  4  3 __ 3  17  5 __ 5  19  3

$$$$
442359
 OpenBabel02201912233D

 39 41  0  0  1  0  0  0  0  0999 V2000
   -0.2843    0.0809    0.4488 C   0  0  2  0  0  0  0  0  0  0  0  0
    0.4076   -0.8854   -0.4735 C   0  0  1  0  0  0  0  0  0  0  0  0
   -0.6615    0.0560   -1.0240 C   0  0  1  0  0  0  0  0  0  0  0  0
    0.3720    1.3610    0.9343 C   0  0  1  0  0  0  0  0  0  0  0  0
    1.8738   -0.6600   -0.8439 C   0  0  1  0  0  0  0  0  0  0  0  0
   -1.4678   -0.4628    1.2515 C   0  0  0  0  0  0  0  0  0  0  0  0
   -2.1342   -0.0850   -0.9448 C   0  0  0  0  0  0  0  0  0  0  0  0
    1.5637    1.7441    0.0405 C   0  0  0  0  0  0  0  0  0  0  0  0
    2.5033    0.5588   -0.1223 C   0  0  0  0  0  0  0  0  0  0  0  0
   -2.6096   -0.3981    0.2754 C   0  0  0  0  0  0  0  0  0  0  0  0
    2.7953   -1.9041   -0.6382 C   0  0  0  0  0  0  0  0  0  0  0  0
   -0.6229    2.5283    0.9748 C   0  0  0  0  0  0  0  0  0  0  0  0
   -2.9931    0.4747   -2.0326 C   0  0  0  0  0  0  0  0  0  0  0  0
    2.8867   -2.3879    0.8165 C   0  0  0  0  0  0  0  0  0  0  0  0
    2.4389   -3.0720   -1.5608 C   0  0  0  0  0  0  0  0  0  0  0  0
    0.1354   -1.9354   -0.4369 H   0  0  0  0  0  0  0  0  0  0  0  0
   -0.3235    0.8180   -1.7123 H   0  0  0  0  0  0  0  0  0  0  0  0
    0.7401    1.1861    1.9527 H   0  0  0  0  0  0  0  0  0  0  0  0
    1.8821   -0.4331   -1.9191 H   0  0  0  0  0  0  0  0  0  0  0  0
   -1.2964   -1.4983    1.5723 H   0  0  0  0  0  0  0  0  0  0  0  0
   -1.6754    0.1356    2.1419 H   0  0  0  0  0  0  0  0  0  0  0  0
    2.1081    2.5804    0.5009 H   0  0  0  0  0  0  0  0  0  0  0  0
    1.2385    2.0963   -0.9425 H   0  0  0  0  0  0  0  0  0  0  0  0
    2.8528    0.2824    0.8780 H   0  0  0  0  0  0  0  0  0  0  0  0
    3.3916    0.8763   -0.6806 H   0  0  0  0  0  0  0  0  0  0  0  0
   -3.6489   -0.4030    0.5671 H   0  0  0  0  0  0  0  0  0  0  0  0
    3.8113   -1.5976   -0.9264 H   0  0  0  0  0  0  0  0  0  0  0  0
   -1.4628    2.3198    1.6451 H   0  0  0  0  0  0  0  0  0  0  0  0
   -0.1380    3.4426    1.3279 H   0  0  0  0  0  0  0  0  0  0  0  0
   -1.0440    2.7313   -0.0174 H   0  0  0  0  0  0  0  0  0  0  0  0
   -3.8196   -0.1931   -2.2870 H   0  0  0  0  0  0  0  0  0  0  0  0
   -3.4057    1.4397   -1.7092 H   0  0  0  0  0  0  0  0  0  0  0  0
   -2.4093    0.6676   -2.9388 H   0  0  0  0  0  0  0  0  0  0  0  0
    1.8973   -2.5173    1.2670 H   0  0  0  0  0  0  0  0  0  0  0  0
    3.4112   -3.3480    0.8755 H   0  0  0  0  0  0  0  0  0  0  0  0
    3.4533   -1.6878    1.4330 H   0  0  0  0  0  0  0  0  0  0  0  0
    2.4449   -2.7517   -2.6089 H   0  0  0  0  0  0  0  0  0  0  0  0
    3.1793   -3.8754   -1.4635 H   0  0  0  0  0  0  0  0  0  0  0  0
    1.4592   -3.4979   -1.3301 H   0  0  0  0  0  0  0  0  0  0  0  0
  1  2  1  1  0  0  0
  1  6  1  0  0  0  0
  2  3  1  6  0  0  0
  2 16  1  0  0  0  0
  3  1  1  1  0  0  0
  3  7  1  0  0  0  0
  3 17  1  0  0  0  0
  4  1  1  6  0  0  0
  4  8  1  0  0  0  0
  4 12  1  0  0  0  0
  4 18  1  0  0  0  0
  5  2  1  1  0  0  0
  5  9  1  0  0  0  0
  5 19  1  0  0  0  0
  5 11  1  0  0  0  0
  6 10  1  0  0  0  0
  6 20  1  0  0  0  0
  6 21  1  0  0  0  0
  7 10  2  0  0  0  0
  7 13  1  0  0  0  0
  8  9  1  0  0  0  0
  8 22  1  0  0  0  0
  8 23  1  0  0  0  0
  9 24  1  0  0  0  0
  9 25  1  0  0  0  0
 10 26  1  0  0  0  0
 11 14  1  0  0  0  0
 11 15  1  0  0  0  0
 11 27  1  0  0  0  0
 12 28  1  0  0  0  0
 12 29  1  0  0  0  0
 12 30  1  0  0  0  0
 13 31  1  0  0  0  0
 13 32  1  0  0  0  0
 13 33  1  0  0  0  0
 14 34  1  0  0  0  0
 14 35  1  0  0  0  0
 14 36  1  0  0  0  0
 15 37  1  0  0  0  0
 15 38  1  0  0  0  0
 15 39  1  0  0  0  0
M  END
> <PUBCHEM_COMPOUND_CID>
442359

> <PUBCHEM_COMPOUND_CANONICALIZED>
1

> <PUBCHEM_CACTVS_COMPLEXITY>
312

> <PUBCHEM_CACTVS_HBOND_ACCEPTOR>
0

> <PUBCHEM_CACTVS_HBOND_DONOR>
0

> <PUBCHEM_CACTVS_ROTATABLE_BOND>
1

> <PUBCHEM_CACTVS_SUBSKEYS>
AAADceBwAAAAAAAAAAAAAAAAGAAAAQAAAAAwQAAABgAAAACAAAAAGAAAAAAADwCAAAACAAAAAACAAiBCAAAAAAAgAAAACAAAAAgAAAIAAQAAAAAAgAAIAAMAgMAPgAAAAAAAAACAAAQAACAAAAAAAAAAAA==

> <PUBCHEM_IUPAC_OPENEYE_NAME>
(1~{R},5~{S},6~{R},7~{S},10~{R})-7-isopropyl-4,10-dimethyl-tricyclo[4.4.0.0^{1,5}]dec-3-ene

> <PUBCHEM_IUPAC_CAS_NAME>
(1~{R},5~{S},6~{R},7~{S},10~{R})-4,10-dimethyl-7-propan-2-yltricyclo[4.4.0.0^{1,5}]dec-3-ene

> <PUBCHEM_IUPAC_NAME>
(1~{R},5~{S},6~{R},7~{S},10~{R})-4,10-dimethyl-7-propan-2-yltricyclo[4.4.0.0^{1,5}]dec-3-ene

> <PUBCHEM_IUPAC_SYSTEMATIC_NAME>
(1~{R},5~{S},6~{R},7~{S},10~{R})-4,10-dimethyl-7-propan-2-yl-tricyclo[4.4.0.0^{1,5}]dec-3-ene

> <PUBCHEM_IUPAC_TRADITIONAL_NAME>
(1~{R},5~{S},6~{R},7~{S},10~{R})-7-isopropyl-4,10-dimethyl-tricyclo[4.4.0.0^{1,5}]dec-3-ene

> <PUBCHEM_IUPAC_INCHI>
InChI=1S/C15H24/c1-9(2)12-6-5-11(4)15-8-7-10(3)13(15)14(12)15/h7,9,11-14H,5-6,8H2,1-4H3/t11-,12+,13-,14-,15+/m1/s1

> <PUBCHEM_IUPAC_INCHIKEY>
XUEHVOLRMXNRKQ-KHMAMNHCSA-N

> <PUBCHEM_XLOGP3_AA>
4.5

> <PUBCHEM_EXACT_MASS>
204.188

> <PUBCHEM_MOLECULAR_FORMULA>
C15H24

> <PUBCHEM_MOLECULAR_WEIGHT>
204.357

> <PUBCHEM_OPENEYE_CAN_SMILES>
CC1CCC(C2C13C2C(=CC3)C)C(C)C

> <PUBCHEM_OPENEYE_ISO_SMILES>
C[C@@H]1CC[C@H]([C@H]2[C@]13[C@@H]2C(=CC3)C)C(C)C

> <PUBCHEM_CACTVS_TPSA>
0

> <PUBCHEM_MONOISOTOPIC_WEIGHT>
204.188

> <PUBCHEM_TOTAL_CHARGE>
0

> <PUBCHEM_HEAVY_ATOM_COUNT>
15

> <PUBCHEM_ATOM_DEF_STEREO_COUNT>
5

> <PUBCHEM_ATOM_UDEF_STEREO_COUNT>
0

> <PUBCHEM_BOND_DEF_STEREO_COUNT>
0

> <PUBCHEM_BOND_UDEF_STEREO_COUNT>
0

> <PUBCHEM_ISOTOPIC_ATOM_COUNT>
0

> <PUBCHEM_COMPONENT_COUNT>
1

> <PUBCHEM_CACTVS_TAUTO_COUNT>
1

> <PUBCHEM_COORDINATE_TYPE>
1 __ 5 __ 255

> <PUBCHEM_BONDANNOTATIONS>
1  6  6 __ 2  16  6 __ 3  17  5 __ 4  12  5 __ 5  11  6

$$$$
5281516
 OpenBabel02201912233D

 39 38  0  0  0  0  0  0  0  0999 V2000
    1.1196   -0.0953   -0.1658 C   0  0  0  0  0  0  0  0  0  0  0  0
    0.6082   -0.3260    1.2652 C   0  0  0  0  0  0  0  0  0  0  0  0
    0.6163   -1.0507   -1.2403 C   0  0  0  0  0  0  0  0  0  0  0  0
   -0.2723   -2.0381   -1.0000 C   0  0  0  0  0  0  0  0  0  0  0  0
    1.1243    0.7247    2.2110 C   0  0  0  0  0  0  0  0  0  0  0  0
   -0.8743   -3.0008   -1.9854 C   0  0  0  0  0  0  0  0  0  0  0  0
    1.1775   -0.7563   -2.6096 C   0  0  0  0  0  0  0  0  0  0  0  0
    0.3718    1.5426    2.9726 C   0  0  0  0  0  0  0  0  0  0  0  0
   -2.1630   -2.4643   -2.5444 C   0  0  0  0  0  0  0  0  0  0  0  0
    1.0048    2.5827    3.8538 C   0  0  0  0  0  0  0  0  0  0  0  0
   -1.1309    1.4925    3.0008 C   0  0  0  0  0  0  0  0  0  0  0  0
   -2.4611   -2.1871   -3.8324 C   0  0  0  0  0  0  0  0  0  0  0  0
   -1.5015   -2.3753   -4.9786 C   0  0  0  0  0  0  0  0  0  0  0  0
   -3.7916   -1.6663   -4.1447 C   0  0  0  0  0  0  0  0  0  0  0  0
   -4.2524   -1.3478   -5.3633 C   0  0  0  0  0  0  0  0  0  0  0  0
    2.2171   -0.1456   -0.1530 H   0  0  0  0  0  0  0  0  0  0  0  0
    0.8549    0.9254   -0.4744 H   0  0  0  0  0  0  0  0  0  0  0  0
   -0.4866   -0.3388    1.2638 H   0  0  0  0  0  0  0  0  0  0  0  0
    0.9429   -1.3065    1.6254 H   0  0  0  0  0  0  0  0  0  0  0  0
   -0.6518   -2.1837    0.0080 H   0  0  0  0  0  0  0  0  0  0  0  0
    2.2093    0.8063    2.2614 H   0  0  0  0  0  0  0  0  0  0  0  0
   -0.1485   -3.2862   -2.7474 H   0  0  0  0  0  0  0  0  0  0  0  0
   -1.0986   -3.9333   -1.4521 H   0  0  0  0  0  0  0  0  0  0  0  0
    0.6610    0.1023   -3.0506 H   0  0  0  0  0  0  0  0  0  0  0  0
    2.2450   -0.5179   -2.5448 H   0  0  0  0  0  0  0  0  0  0  0  0
    1.0921   -1.5988   -3.2986 H   0  0  0  0  0  0  0  0  0  0  0  0
   -2.9247   -2.2940   -1.7847 H   0  0  0  0  0  0  0  0  0  0  0  0
   -1.5458    1.7163    2.0125 H   0  0  0  0  0  0  0  0  0  0  0  0
   -1.4799    0.5060    3.3241 H   0  0  0  0  0  0  0  0  0  0  0  0
   -1.5415    2.2264    3.7021 H   0  0  0  0  0  0  0  0  0  0  0  0
    0.6453    3.5788    3.5753 H   0  0  0  0  0  0  0  0  0  0  0  0
    0.7514    2.3988    4.9026 H   0  0  0  0  0  0  0  0  0  0  0  0
    2.0965    2.5890    3.7678 H   0  0  0  0  0  0  0  0  0  0  0  0
   -1.9136   -3.0772   -5.7114 H   0  0  0  0  0  0  0  0  0  0  0  0
   -1.3057   -1.4184   -5.4749 H   0  0  0  0  0  0  0  0  0  0  0  0
   -0.5319   -2.7757   -4.6797 H   0  0  0  0  0  0  0  0  0  0  0  0
   -4.4704   -1.5229   -3.3048 H   0  0  0  0  0  0  0  0  0  0  0  0
   -5.2612   -0.9682   -5.4844 H   0  0  0  0  0  0  0  0  0  0  0  0
   -3.6584   -1.4504   -6.2644 H   0  0  0  0  0  0  0  0  0  0  0  0
  1  2  1  0  0  0  0
  1  3  1  0  0  0  0
  1 16  1  0  0  0  0
  1 17  1  0  0  0  0
  2  5  1  0  0  0  0
  2 18  1  0  0  0  0
  2 19  1  0  0  0  0
  3  4  2  0  0  0  0
  3  7  1  0  0  0  0
  4  6  1  0  0  0  0
  4 20  1  0  0  0  0
  5  8  2  0  0  0  0
  5 21  1  0  0  0  0
  6  9  1  0  0  0  0
  6 22  1  0  0  0  0
  6 23  1  0  0  0  0
  7 24  1  0  0  0  0
  7 25  1  0  0  0  0
  7 26  1  0  0  0  0
  8 10  1  0  0  0  0
  8 11  1  0  0  0  0
  9 12  2  0  0  0  0
  9 27  1  0  0  0  0
 10 31  1  0  0  0  0
 10 32  1  0  0  0  0
 10 33  1  0  0  0  0
 11 28  1  0  0  0  0
 11 29  1  0  0  0  0
 11 30  1  0  0  0  0
 12 13  1  0  0  0  0
 12 14  1  0  0  0  0
 13 34  1  0  0  0  0
 13 35  1  0  0  0  0
 13 36  1  0  0  0  0
 14 15  2  0  0  0  0
 14 37  1  0  0  0  0
 15 38  1  0  0  0  0
 15 39  1  0  0  0  0
M  END
> <PUBCHEM_COMPOUND_CID>
5281516

> <PUBCHEM_COMPOUND_CANONICALIZED>
1

> <PUBCHEM_CACTVS_COMPLEXITY>
270

> <PUBCHEM_CACTVS_HBOND_ACCEPTOR>
0

> <PUBCHEM_CACTVS_HBOND_DONOR>
0

> <PUBCHEM_CACTVS_ROTATABLE_BOND>
6

> <PUBCHEM_CACTVS_SUBSKEYS>
AAADceBwAAAAAAAAAAAAAAAAAAAAAAAAAAAAAAAAAAAAAAAAAAAAGAAAAAAADACAAAACAAAAAACAAiBCAAAAAAAgAAAICAAAAAgIAAIAAQAAAAAAgAAIgAIAAAAAAAAAAAAAAAAAAAAAAAAAAAAAAAAAAA==

> <PUBCHEM_IUPAC_OPENEYE_NAME>
(3~{E},6~{E})-3,7,11-trimethyldodeca-1,3,6,10-tetraene

> <PUBCHEM_IUPAC_CAS_NAME>
(3~{E},6~{E})-3,7,11-trimethyldodeca-1,3,6,10-tetraene

> <PUBCHEM_IUPAC_NAME>
(3~{E},6~{E})-3,7,11-trimethyldodeca-1,3,6,10-tetraene

> <PUBCHEM_IUPAC_SYSTEMATIC_NAME>
(3~{E},6~{E})-3,7,11-trimethyldodeca-1,3,6,10-tetraene

> <PUBCHEM_IUPAC_TRADITIONAL_NAME>
(3~{E},6~{E})-3,7,11-trimethyldodeca-1,3,6,10-tetraene

> <PUBCHEM_IUPAC_INCHI>
InChI=1S/C15H24/c1-6-14(4)10-8-12-15(5)11-7-9-13(2)3/h6,9-10,12H,1,7-8,11H2,2-5H3/b14-10+,15-12+

> <PUBCHEM_IUPAC_INCHIKEY>
CXENHBSYCFFKJS-VDQVFBMKSA-N

> <PUBCHEM_XLOGP3_AA>
6.1

> <PUBCHEM_EXACT_MASS>
204.188

> <PUBCHEM_MOLECULAR_FORMULA>
C15H24

> <PUBCHEM_MOLECULAR_WEIGHT>
204.357

> <PUBCHEM_OPENEYE_CAN_SMILES>
CC(=CCCC(=CCC=C(C)C=C)C)C

> <PUBCHEM_OPENEYE_ISO_SMILES>
CC(=CCC/C(=C/C/C=C(\C)/C=C)/C)C

> <PUBCHEM_CACTVS_TPSA>
0

> <PUBCHEM_MONOISOTOPIC_WEIGHT>
204.188

> <PUBCHEM_TOTAL_CHARGE>
0

> <PUBCHEM_HEAVY_ATOM_COUNT>
15

> <PUBCHEM_ATOM_DEF_STEREO_COUNT>
0

> <PUBCHEM_ATOM_UDEF_STEREO_COUNT>
0

> <PUBCHEM_BOND_DEF_STEREO_COUNT>
2

> <PUBCHEM_BOND_UDEF_STEREO_COUNT>
0

> <PUBCHEM_ISOTOPIC_ATOM_COUNT>
0

> <PUBCHEM_COMPONENT_COUNT>
1

> <PUBCHEM_CACTVS_TAUTO_COUNT>
-1

> <PUBCHEM_COORDINATE_TYPE>
1 __ 5 __ 255

$$$$
5281520
 OpenBabel02201912233D

 39 39  0  0  0  0  0  0  0  0999 V2000
   -0.4904    2.1786   -1.7319 C   0  0  0  0  0  0  0  0  0  0  0  0
   -1.3678    3.2135   -2.5596 C   0  0  0  0  0  0  0  0  0  0  0  0
   -0.6776    2.2219   -0.2071 C   0  0  0  0  0  0  0  0  0  0  0  0
   -0.7980    0.7801   -2.3132 C   0  0  0  0  0  0  0  0  0  0  0  0
    1.0350    2.4101   -1.9529 C   0  0  0  0  0  0  0  0  0  0  0  0
   -1.1346    4.6950   -2.3215 C   0  0  0  0  0  0  0  0  0  0  0  0
   -1.9825    5.6459   -1.8615 C   0  0  0  0  0  0  0  0  0  0  0  0
   -1.4549    7.0520   -1.5823 C   0  0  0  0  0  0  0  0  0  0  0  0
   -1.5062    3.0681    0.4349 C   0  0  0  0  0  0  0  0  0  0  0  0
   -0.7813    7.2560   -0.1932 C   0  0  0  0  0  0  0  0  0  0  0  0
   -1.0944    3.8537    1.6672 C   0  0  0  0  0  0  0  0  0  0  0  0
   -0.4176    5.1382    1.1760 C   0  0  0  0  0  0  0  0  0  0  0  0
   -1.1698    6.2091    0.8381 C   0  0  0  0  0  0  0  0  0  0  0  0
   -3.4346    5.4548   -1.4909 C   0  0  0  0  0  0  0  0  0  0  0  0
    1.0400    5.0276    0.8439 C   0  0  0  0  0  0  0  0  0  0  0  0
   -1.1743    3.0456   -3.6274 H   0  0  0  0  0  0  0  0  0  0  0  0
   -2.4267    2.9639   -2.4178 H   0  0  0  0  0  0  0  0  0  0  0  0
    0.1327    1.7822    0.3709 H   0  0  0  0  0  0  0  0  0  0  0  0
    1.5386    2.8030   -1.0635 H   0  0  0  0  0  0  0  0  0  0  0  0
    1.5600    1.4699   -2.1620 H   0  0  0  0  0  0  0  0  0  0  0  0
   -0.4966    0.7371   -3.3708 H   0  0  0  0  0  0  0  0  0  0  0  0
   -0.2448   -0.0088   -1.7913 H   0  0  0  0  0  0  0  0  0  0  0  0
   -1.8633    0.5410   -2.2640 H   0  0  0  0  0  0  0  0  0  0  0  0
    1.2484    3.0946   -2.7762 H   0  0  0  0  0  0  0  0  0  0  0  0
   -0.1188    5.0130   -2.5514 H   0  0  0  0  0  0  0  0  0  0  0  0
   -2.2760    7.7722   -1.6971 H   0  0  0  0  0  0  0  0  0  0  0  0
   -0.7353    7.3312   -2.3669 H   0  0  0  0  0  0  0  0  0  0  0  0
   -2.3424    3.5077   -0.0917 H   0  0  0  0  0  0  0  0  0  0  0  0
   -1.0405    8.2500    0.1884 H   0  0  0  0  0  0  0  0  0  0  0  0
    0.3023    7.2806   -0.3551 H   0  0  0  0  0  0  0  0  0  0  0  0
   -1.9879    4.0839    2.2617 H   0  0  0  0  0  0  0  0  0  0  0  0
   -0.4205    3.2788    2.3095 H   0  0  0  0  0  0  0  0  0  0  0  0
   -2.2199    6.2243    1.1154 H   0  0  0  0  0  0  0  0  0  0  0  0
   -3.7589    4.4121   -1.5063 H   0  0  0  0  0  0  0  0  0  0  0  0
   -3.6366    5.8264   -0.4806 H   0  0  0  0  0  0  0  0  0  0  0  0
   -4.0819    6.0143   -2.1707 H   0  0  0  0  0  0  0  0  0  0  0  0
    1.5628    4.4379    1.6089 H   0  0  0  0  0  0  0  0  0  0  0  0
    1.1838    4.5560   -0.1216 H   0  0  0  0  0  0  0  0  0  0  0  0
    1.5416    5.9977    0.8093 H   0  0  0  0  0  0  0  0  0  0  0  0
  1  2  1  0  0  0  0
  1  3  1  0  0  0  0
  1  4  1  0  0  0  0
  1  5  1  0  0  0  0
  2  6  1  0  0  0  0
  2 16  1  0  0  0  0
  2 17  1  0  0  0  0
  3  9  2  0  0  0  0
  3 18  1  0  0  0  0
  4 21  1  0  0  0  0
  4 22  1  0  0  0  0
  4 23  1  0  0  0  0
  5 19  1  0  0  0  0
  5 20  1  0  0  0  0
  5 24  1  0  0  0  0
  6  7  2  0  0  0  0
  6 25  1  0  0  0  0
  7  8  1  0  0  0  0
  7 14  1  0  0  0  0
  8 10  1  0  0  0  0
  8 26  1  0  0  0  0
  8 27  1  0  0  0  0
  9 11  1  0  0  0  0
  9 28  1  0  0  0  0
 10 13  1  0  0  0  0
 10 29  1  0  0  0  0
 10 30  1  0  0  0  0
 11 12  1  0  0  0  0
 11 31  1  0  0  0  0
 11 32  1  0  0  0  0
 12 13  2  0  0  0  0
 12 15  1  0  0  0  0
 13 33  1  0  0  0  0
 14 34  1  0  0  0  0
 14 35  1  0  0  0  0
 14 36  1  0  0  0  0
 15 37  1  0  0  0  0
 15 38  1  0  0  0  0
 15 39  1  0  0  0  0
M  END
> <PUBCHEM_COMPOUND_CID>
5281520

> <PUBCHEM_COMPOUND_CANONICALIZED>
1

> <PUBCHEM_CACTVS_COMPLEXITY>
287

> <PUBCHEM_CACTVS_HBOND_ACCEPTOR>
0

> <PUBCHEM_CACTVS_HBOND_DONOR>
0

> <PUBCHEM_CACTVS_ROTATABLE_BOND>
0

> <PUBCHEM_CACTVS_SUBSKEYS>
AAADceBwAAAAAAAAAAAAAAAAAAAAAAAAAAAAAAAAAAAAAAAAAAAAGAAAAAAADgCAAAACAAAAAACAAiBCAAAAAAAgAAAICAAAAAgAAAIAAQAAAAAAgAAIAAIAAAAJAAAAAAAAAAAAAAAAAAAAAAAAAAAAAA==

> <PUBCHEM_IUPAC_OPENEYE_NAME>
(1~{E},4~{E},8~{E})-2,6,6,9-tetramethylcycloundeca-1,4,8-triene

> <PUBCHEM_IUPAC_CAS_NAME>
(1~{E},4~{E},8~{E})-2,6,6,9-tetramethylcycloundeca-1,4,8-triene

> <PUBCHEM_IUPAC_NAME>
(1~{E},4~{E},8~{E})-2,6,6,9-tetramethylcycloundeca-1,4,8-triene

> <PUBCHEM_IUPAC_SYSTEMATIC_NAME>
(1~{E},4~{E},8~{E})-2,6,6,9-tetramethylcycloundeca-1,4,8-triene

> <PUBCHEM_IUPAC_TRADITIONAL_NAME>
(1~{E},4~{E},8~{E})-2,6,6,9-tetramethylcycloundeca-1,4,8-triene

> <PUBCHEM_IUPAC_INCHI>
InChI=1S/C15H24/c1-13-7-5-8-14(2)10-12-15(3,4)11-6-9-13/h6-7,10-11H,5,8-9,12H2,1-4H3/b11-6+,13-7+,14-10+

> <PUBCHEM_IUPAC_INCHIKEY>
FAMPSKZZVDUYOS-HRGUGZIWSA-N

> <PUBCHEM_XLOGP3_AA>
4.5

> <PUBCHEM_EXACT_MASS>
204.188

> <PUBCHEM_MOLECULAR_FORMULA>
C15H24

> <PUBCHEM_MOLECULAR_WEIGHT>
204.357

> <PUBCHEM_OPENEYE_CAN_SMILES>
CC1=CCC(C=CCC(=CCC1)C)(C)C

> <PUBCHEM_OPENEYE_ISO_SMILES>
C/C/1=C\CC(/C=C/C/C(=C/CC1)/C)(C)C

> <PUBCHEM_CACTVS_TPSA>
0

> <PUBCHEM_MONOISOTOPIC_WEIGHT>
204.188

> <PUBCHEM_TOTAL_CHARGE>
0

> <PUBCHEM_HEAVY_ATOM_COUNT>
15

> <PUBCHEM_ATOM_DEF_STEREO_COUNT>
0

> <PUBCHEM_ATOM_UDEF_STEREO_COUNT>
0

> <PUBCHEM_BOND_DEF_STEREO_COUNT>
3

> <PUBCHEM_BOND_UDEF_STEREO_COUNT>
0

> <PUBCHEM_ISOTOPIC_ATOM_COUNT>
0

> <PUBCHEM_COMPONENT_COUNT>
1

> <PUBCHEM_CACTVS_TAUTO_COUNT>
-1

> <PUBCHEM_COORDINATE_TYPE>
1 __ 5 __ 255

$$$$
12306047
 OpenBabel02201912233D

 39 40  0  0  1  0  0  0  0  0999 V2000
    0.2728    0.6804    0.2303 C   0  0  1  0  0  0  0  0  0  0  0  0
   -0.5466    1.9575   -0.2132 C   0  0  1  0  0  0  0  0  0  0  0  0
   -0.6470   -0.6209    0.2961 C   0  0  2  0  0  0  0  0  0  0  0  0
    0.0742   -1.9354   -0.0741 C   0  0  0  0  0  0  0  0  0  0  0  0
   -1.9390    1.8702    0.4498 C   0  0  0  0  0  0  0  0  0  0  0  0
    0.1416    3.3429   -0.0443 C   0  0  0  0  0  0  0  0  0  0  0  0
   -2.0157   -0.4504   -0.3692 C   0  0  0  0  0  0  0  0  0  0  0  0
    1.5458    0.4338   -0.5681 C   0  0  0  0  0  0  0  0  0  0  0  0
    1.5497   -1.8763    0.2773 C   0  0  0  0  0  0  0  0  0  0  0  0
   -2.6547    0.7214   -0.1874 C   0  0  0  0  0  0  0  0  0  0  0  0
    2.1499   -0.7708   -0.5493 C   0  0  0  0  0  0  0  0  0  0  0  0
   -0.7831    4.4857   -0.5091 C   0  0  0  0  0  0  0  0  0  0  0  0
    0.6472    3.6573    1.3616 C   0  0  0  0  0  0  0  0  0  0  0  0
   -2.6333   -1.5332   -1.2035 C   0  0  0  0  0  0  0  0  0  0  0  0
    3.3324   -1.1436   -1.3890 C   0  0  0  0  0  0  0  0  0  0  0  0
    0.6078    0.8700    1.2583 H   0  0  0  0  0  0  0  0  0  0  0  0
   -0.6919    1.8592   -1.3027 H   0  0  0  0  0  0  0  0  0  0  0  0
   -0.8818   -0.7395    1.3668 H   0  0  0  0  0  0  0  0  0  0  0  0
   -0.0006   -2.1375   -1.1498 H   0  0  0  0  0  0  0  0  0  0  0  0
   -0.4021   -2.7805    0.4382 H   0  0  0  0  0  0  0  0  0  0  0  0
   -2.5367    2.7656    0.2710 H   0  0  0  0  0  0  0  0  0  0  0  0
   -1.8765    1.7340    1.5365 H   0  0  0  0  0  0  0  0  0  0  0  0
    1.0113    3.3649   -0.7128 H   0  0  0  0  0  0  0  0  0  0  0  0
    1.9522    1.2401   -1.1690 H   0  0  0  0  0  0  0  0  0  0  0  0
    2.0199   -2.8426    0.0575 H   0  0  0  0  0  0  0  0  0  0  0  0
    1.7005   -1.6812    1.3463 H   0  0  0  0  0  0  0  0  0  0  0  0
   -3.6418    0.9007   -0.6107 H   0  0  0  0  0  0  0  0  0  0  0  0
    1.4711    2.9956    1.6426 H   0  0  0  0  0  0  0  0  0  0  0  0
    1.0339    4.6835    1.4056 H   0  0  0  0  0  0  0  0  0  0  0  0
   -0.1461    3.5705    2.1095 H   0  0  0  0  0  0  0  0  0  0  0  0
   -1.6056    4.6583    0.1908 H   0  0  0  0  0  0  0  0  0  0  0  0
   -0.2324    5.4297   -0.5809 H   0  0  0  0  0  0  0  0  0  0  0  0
   -1.2088    4.2731   -1.4960 H   0  0  0  0  0  0  0  0  0  0  0  0
   -1.9306   -1.9259   -1.9442 H   0  0  0  0  0  0  0  0  0  0  0  0
   -2.9886   -2.3532   -0.5762 H   0  0  0  0  0  0  0  0  0  0  0  0
   -3.4818   -1.1536   -1.7854 H   0  0  0  0  0  0  0  0  0  0  0  0
    4.1091   -1.6132   -0.7781 H   0  0  0  0  0  0  0  0  0  0  0  0
    3.0237   -1.8618   -2.1541 H   0  0  0  0  0  0  0  0  0  0  0  0
    3.7700   -0.2787   -1.8965 H   0  0  0  0  0  0  0  0  0  0  0  0
  1  2  1  6  0  0  0
  1  8  1  0  0  0  0
  1 16  1  0  0  0  0
  2  5  1  0  0  0  0
  2 17  1  6  0  0  0
  2  6  1  0  0  0  0
  3  1  1  6  0  0  0
  3  4  1  0  0  0  0
  3  7  1  0  0  0  0
  3 18  1  0  0  0  0
  4  9  1  0  0  0  0
  4 19  1  0  0  0  0
  4 20  1  0  0  0  0
  5 10  1  0  0  0  0
  5 21  1  0  0  0  0
  5 22  1  0  0  0  0
  6 12  1  0  0  0  0
  6 13  1  0  0  0  0
  6 23  1  0  0  0  0
  7 10  2  0  0  0  0
  7 14  1  0  0  0  0
  8 11  2  0  0  0  0
  8 24  1  0  0  0  0
  9 11  1  0  0  0  0
  9 25  1  0  0  0  0
  9 26  1  0  0  0  0
 10 27  1  0  0  0  0
 11 15  1  0  0  0  0
 12 31  1  0  0  0  0
 12 32  1  0  0  0  0
 12 33  1  0  0  0  0
 13 28  1  0  0  0  0
 13 29  1  0  0  0  0
 13 30  1  0  0  0  0
 14 34  1  0  0  0  0
 14 35  1  0  0  0  0
 14 36  1  0  0  0  0
 15 37  1  0  0  0  0
 15 38  1  0  0  0  0
 15 39  1  0  0  0  0
M  END
> <PUBCHEM_COMPOUND_CID>
12306047

> <PUBCHEM_COMPOUND_CANONICALIZED>
1

> <PUBCHEM_CACTVS_COMPLEXITY>
293

> <PUBCHEM_CACTVS_HBOND_ACCEPTOR>
0

> <PUBCHEM_CACTVS_HBOND_DONOR>
0

> <PUBCHEM_CACTVS_ROTATABLE_BOND>
1

> <PUBCHEM_CACTVS_SUBSKEYS>
AAADceBwAAAAAAAAAAAAAAAAAAAAAAAAAAAgQAAAAAAAAACAAAAAGAAAAAAADQCAAAACAAAAAACAAiBCAAAAAAAgAAAACAAAAAgAAAIAAQAAAAAAgAAIAAMAgMAOgAAAAAAAAAAAAAAAAAAAAAAAAAAAAA==

> <PUBCHEM_IUPAC_OPENEYE_NAME>
(1~{S},4~{a}~{S},8~{a}~{R})-1-isopropyl-4,7-dimethyl-1,2,4~{a},5,6,8~{a}-hexahydronaphthalene

> <PUBCHEM_IUPAC_CAS_NAME>
(1~{S},4~{a}~{S},8~{a}~{R})-4,7-dimethyl-1-propan-2-yl-1,2,4~{a},5,6,8~{a}-hexahydronaphthalene

> <PUBCHEM_IUPAC_NAME>
(1~{S},4~{a}~{S},8~{a}~{R})-4,7-dimethyl-1-propan-2-yl-1,2,4~{a},5,6,8~{a}-hexahydronaphthalene

> <PUBCHEM_IUPAC_SYSTEMATIC_NAME>
(1~{S},4~{a}~{S},8~{a}~{R})-4,7-dimethyl-1-propan-2-yl-1,2,4~{a},5,6,8~{a}-hexahydronaphthalene

> <PUBCHEM_IUPAC_TRADITIONAL_NAME>
(1~{S},4~{a}~{S},8~{a}~{R})-1-isopropyl-4,7-dimethyl-1,2,4~{a},5,6,8~{a}-hexahydronaphthalene

> <PUBCHEM_IUPAC_INCHI>
InChI=1S/C15H24/c1-10(2)13-8-6-12(4)14-7-5-11(3)9-15(13)14/h6,9-10,13-15H,5,7-8H2,1-4H3/t13-,14+,15-/m0/s1

> <PUBCHEM_IUPAC_INCHIKEY>
QMAYBMKBYCGXDH-ZNMIVQPWSA-N

> <PUBCHEM_XLOGP3_AA>
4.1

> <PUBCHEM_EXACT_MASS>
204.188

> <PUBCHEM_MOLECULAR_FORMULA>
C15H24

> <PUBCHEM_MOLECULAR_WEIGHT>
204.357

> <PUBCHEM_OPENEYE_CAN_SMILES>
CC1=CC2C(CC1)C(=CCC2C(C)C)C

> <PUBCHEM_OPENEYE_ISO_SMILES>
CC1=C[C@@H]2[C@H](CC1)C(=CC[C@H]2C(C)C)C

> <PUBCHEM_CACTVS_TPSA>
0

> <PUBCHEM_MONOISOTOPIC_WEIGHT>
204.188

> <PUBCHEM_TOTAL_CHARGE>
0

> <PUBCHEM_HEAVY_ATOM_COUNT>
15

> <PUBCHEM_ATOM_DEF_STEREO_COUNT>
3

> <PUBCHEM_ATOM_UDEF_STEREO_COUNT>
0

> <PUBCHEM_BOND_DEF_STEREO_COUNT>
0

> <PUBCHEM_BOND_UDEF_STEREO_COUNT>
0

> <PUBCHEM_ISOTOPIC_ATOM_COUNT>
0

> <PUBCHEM_COMPONENT_COUNT>
1

> <PUBCHEM_CACTVS_TAUTO_COUNT>
-1

> <PUBCHEM_COORDINATE_TYPE>
1 __ 5 __ 255

> <PUBCHEM_BONDANNOTATIONS>
1  16  6 __ 2  6  6 __ 3  18  6

$$$$
62566
 OpenBabel02201912233D

 39 41  0  0  1  0  0  0  0  0999 V2000
    1.3296   -0.7517    0.3337 C   0  0  2  0  0  0  0  0  0  0  0  0
    0.1917    0.2097   -0.1773 C   0  0  1  0  0  0  0  0  0  0  0  0
    0.3814   -1.9503   -0.1426 C   0  0  1  0  0  0  0  0  0  0  0  0
   -0.5953   -0.9429   -0.7865 C   0  0  2  0  0  0  0  0  0  0  0  0
   -0.5075    0.7098    1.0938 C   0  0  1  0  0  0  0  0  0  0  0  0
    1.4616   -0.3003    1.8280 C   0  0  0  0  0  0  0  0  0  0  0  0
    0.6991    1.0293    1.9474 C   0  0  0  0  0  0  0  0  0  0  0  0
    0.6714   -2.8650   -1.3535 C   0  0  0  0  0  0  0  0  0  0  0  0
   -0.5017   -1.0443   -2.2573 C   0  0  0  0  0  0  0  0  0  0  0  0
    2.7424   -0.9251   -0.2048 C   0  0  0  0  0  0  0  0  0  0  0  0
    0.5743   -2.0064   -2.6237 C   0  0  0  0  0  0  0  0  0  0  0  0
   -1.6137    1.7397    0.8477 C   0  0  0  0  0  0  0  0  0  0  0  0
   -1.3562   -0.4060   -3.0684 C   0  0  0  0  0  0  0  0  0  0  0  0
   -1.1769    3.0155    0.1375 C   0  0  0  0  0  0  0  0  0  0  0  0
   -2.3479    2.0396    2.1604 C   0  0  0  0  0  0  0  0  0  0  0  0
    0.5554    0.9928   -0.8561 H   0  0  0  0  0  0  0  0  0  0  0  0
   -0.0292   -2.5152    0.7008 H   0  0  0  0  0  0  0  0  0  0  0  0
   -1.6346   -1.0557   -0.4329 H   0  0  0  0  0  0  0  0  0  0  0  0
   -1.0113   -0.1364    1.5902 H   0  0  0  0  0  0  0  0  0  0  0  0
    1.0427   -1.0584    2.4981 H   0  0  0  0  0  0  0  0  0  0  0  0
    2.5044   -0.1354    2.1273 H   0  0  0  0  0  0  0  0  0  0  0  0
    0.4651    1.2763    2.9861 H   0  0  0  0  0  0  0  0  0  0  0  0
    1.2907    1.8480    1.5174 H   0  0  0  0  0  0  0  0  0  0  0  0
   -0.1042   -3.6419   -1.3986 H   0  0  0  0  0  0  0  0  0  0  0  0
    1.6357   -3.3723   -1.2703 H   0  0  0  0  0  0  0  0  0  0  0  0
    3.3283   -0.0011   -0.1300 H   0  0  0  0  0  0  0  0  0  0  0  0
    3.2679   -1.6920    0.3858 H   0  0  0  0  0  0  0  0  0  0  0  0
    2.8009   -1.2551   -1.2418 H   0  0  0  0  0  0  0  0  0  0  0  0
    1.4914   -1.4472   -2.8083 H   0  0  0  0  0  0  0  0  0  0  0  0
    0.3479   -2.6021   -3.5103 H   0  0  0  0  0  0  0  0  0  0  0  0
   -2.3575    1.2696    0.1887 H   0  0  0  0  0  0  0  0  0  0  0  0
   -1.2969   -0.5091   -4.1431 H   0  0  0  0  0  0  0  0  0  0  0  0
   -2.1270    0.2484   -2.6680 H   0  0  0  0  0  0  0  0  0  0  0  0
   -1.9513    3.7875    0.2087 H   0  0  0  0  0  0  0  0  0  0  0  0
   -0.2497    3.4234    0.5449 H   0  0  0  0  0  0  0  0  0  0  0  0
   -1.0279    2.8193   -0.9304 H   0  0  0  0  0  0  0  0  0  0  0  0
   -3.0818    2.8413    2.0365 H   0  0  0  0  0  0  0  0  0  0  0  0
   -1.6588    2.3272    2.9590 H   0  0  0  0  0  0  0  0  0  0  0  0
   -2.8939    1.1493    2.4950 H   0  0  0  0  0  0  0  0  0  0  0  0
  1  2  1  6  0  0  0
  1  6  1  0  0  0  0
  1 10  1  0  0  0  0
  2  4  1  6  0  0  0
  2 16  1  0  0  0  0
  3  1  1  1  0  0  0
  3  8  1  0  0  0  0
  3 17  1  0  0  0  0
  4  3  1  1  0  0  0
  4  9  1  0  0  0  0
  4 18  1  0  0  0  0
  5  2  1  6  0  0  0
  5  7  1  0  0  0  0
  5 19  1  0  0  0  0
  5 12  1  0  0  0  0
  6  7  1  0  0  0  0
  6 20  1  0  0  0  0
  6 21  1  0  0  0  0
  7 22  1  0  0  0  0
  7 23  1  0  0  0  0
  8 11  1  0  0  0  0
  8 24  1  0  0  0  0
  8 25  1  0  0  0  0
  9 11  1  0  0  0  0
  9 13  2  0  0  0  0
 10 26  1  0  0  0  0
 10 27  1  0  0  0  0
 10 28  1  0  0  0  0
 11 29  1  0  0  0  0
 11 30  1  0  0  0  0
 12 14  1  0  0  0  0
 12 15  1  0  0  0  0
 12 31  1  0  0  0  0
 13 32  1  0  0  0  0
 13 33  1  0  0  0  0
 14 34  1  0  0  0  0
 14 35  1  0  0  0  0
 14 36  1  0  0  0  0
 15 37  1  0  0  0  0
 15 38  1  0  0  0  0
 15 39  1  0  0  0  0
M  END
> <PUBCHEM_COMPOUND_CID>
62566

> <PUBCHEM_COMPOUND_CANONICALIZED>
1

> <PUBCHEM_CACTVS_COMPLEXITY>
301

> <PUBCHEM_CACTVS_HBOND_ACCEPTOR>
0

> <PUBCHEM_CACTVS_HBOND_DONOR>
0

> <PUBCHEM_CACTVS_ROTATABLE_BOND>
1

> <PUBCHEM_CACTVS_SUBSKEYS>
AAADceBwAAAAAAAAAAAAAAAAAABgAYMAAAAAAAAABgwAAAAAAAAAGAAAAAAADwCAAAACAAAAAACAAgBCAAAAAAAgAAAAAAAAAAgAAAIAAQAAAAAAgAAAAAEAgMAPgAAAAAAAAAAAAAAAAAAAAQAACAAAAA==

> <PUBCHEM_IUPAC_OPENEYE_NAME>
(1~{S},2~{R},6~{S},7~{R},8~{S})-8-isopropyl-1-methyl-5-methylene-tricyclo[5.3.0.0^{2,6}]decane

> <PUBCHEM_IUPAC_CAS_NAME>
(1~{S},2~{R},6~{S},7~{R},8~{S})-1-methyl-5-methylene-8-propan-2-yltricyclo[5.3.0.0^{2,6}]decane

> <PUBCHEM_IUPAC_NAME>
(1~{S},2~{R},6~{S},7~{R},8~{S})-1-methyl-5-methylidene-8-propan-2-yltricyclo[5.3.0.0^{2,6}]decane

> <PUBCHEM_IUPAC_SYSTEMATIC_NAME>
(1~{S},2~{R},6~{S},7~{R},8~{S})-1-methyl-5-methylidene-8-propan-2-yl-tricyclo[5.3.0.0^{2,6}]decane

> <PUBCHEM_IUPAC_TRADITIONAL_NAME>
(1~{S},2~{R},6~{S},7~{R},8~{S})-8-isopropyl-1-methyl-5-methylene-tricyclo[5.3.0.0^{2,6}]decane

> <PUBCHEM_IUPAC_INCHI>
InChI=1S/C15H24/c1-9(2)11-7-8-15(4)12-6-5-10(3)13(12)14(11)15/h9,11-14H,3,5-8H2,1-2,4H3/t11-,12+,13-,14+,15-/m0/s1

> <PUBCHEM_IUPAC_INCHIKEY>
YIRAHEODBQONHI-ZQNQSHIBSA-N

> <PUBCHEM_XLOGP3_AA>
4.7

> <PUBCHEM_EXACT_MASS>
204.188

> <PUBCHEM_MOLECULAR_FORMULA>
C15H24

> <PUBCHEM_MOLECULAR_WEIGHT>
204.357

> <PUBCHEM_OPENEYE_CAN_SMILES>
CC(C)C1CCC2(C1C3C2CCC3=C)C

> <PUBCHEM_OPENEYE_ISO_SMILES>
CC(C)[C@@H]1CC[C@@]2([C@H]1[C@@H]3[C@H]2CCC3=C)C

> <PUBCHEM_CACTVS_TPSA>
0

> <PUBCHEM_MONOISOTOPIC_WEIGHT>
204.188

> <PUBCHEM_TOTAL_CHARGE>
0

> <PUBCHEM_HEAVY_ATOM_COUNT>
15

> <PUBCHEM_ATOM_DEF_STEREO_COUNT>
5

> <PUBCHEM_ATOM_UDEF_STEREO_COUNT>
0

> <PUBCHEM_BOND_DEF_STEREO_COUNT>
0

> <PUBCHEM_BOND_UDEF_STEREO_COUNT>
0

> <PUBCHEM_ISOTOPIC_ATOM_COUNT>
0

> <PUBCHEM_COMPONENT_COUNT>
1

> <PUBCHEM_CACTVS_TAUTO_COUNT>
1

> <PUBCHEM_COORDINATE_TYPE>
1 __ 5 __ 255

> <PUBCHEM_BONDANNOTATIONS>
1  10  5 __ 2  16  5 __ 3  17  6 __ 4  18  6 __ 5  12  5

$$$$
11106485
 OpenBabel02201912233D

 39 41  0  0  1  0  0  0  0  0999 V2000
   -0.6059    0.6821    0.2627 C   0  0  1  0  0  0  0  0  0  0  0  0
   -0.3421   -0.8093   -0.1649 C   0  0  2  0  0  0  0  0  0  0  0  0
    0.9529   -0.7648   -1.0115 C   0  0  0  0  0  0  0  0  0  0  0  0
    1.6600    0.4694   -0.3507 C   0  0  1  0  0  0  0  0  0  0  0  0
    0.5277    1.5060   -0.3807 C   0  0  0  0  0  0  0  0  0  0  0  0
   -2.0316    0.9685   -0.2444 C   0  0  1  0  0  0  0  0  0  0  0  0
   -1.6441   -1.3299   -0.7688 C   0  0  0  0  0  0  0  0  0  0  0  0
   -0.3928    0.8462    1.7780 C   0  0  0  0  0  0  0  0  0  0  0  0
   -2.6957   -0.4141   -0.1590 C   0  0  0  0  0  0  0  0  0  0  0  0
    2.0583    0.2202    1.1154 C   0  0  0  0  0  0  0  0  0  0  0  0
    1.0325    0.4544    2.2200 C   0  0  0  0  0  0  0  0  0  0  0  0
    1.7507   -2.0710   -0.9109 C   0  0  0  0  0  0  0  0  0  0  0  0
    0.7052   -0.5157   -2.5203 C   0  0  0  0  0  0  0  0  0  0  0  0
   -2.8238    2.0385    0.4876 C   0  0  0  0  0  0  0  0  0  0  0  0
    3.2617   -0.2768    1.4510 C   0  0  0  0  0  0  0  0  0  0  0  0
   -0.1620   -1.4158    0.7342 H   0  0  0  0  0  0  0  0  0  0  0  0
    2.5215    0.8099   -0.9336 H   0  0  0  0  0  0  0  0  0  0  0  0
    0.2870    1.8331   -1.3964 H   0  0  0  0  0  0  0  0  0  0  0  0
    0.7722    2.4194    0.1777 H   0  0  0  0  0  0  0  0  0  0  0  0
   -1.9844    1.2512   -1.3067 H   0  0  0  0  0  0  0  0  0  0  0  0
   -1.6725   -1.2588   -1.8565 H   0  0  0  0  0  0  0  0  0  0  0  0
   -1.8141   -2.3810   -0.5011 H   0  0  0  0  0  0  0  0  0  0  0  0
   -1.1274    0.2686    2.3492 H   0  0  0  0  0  0  0  0  0  0  0  0
   -0.5552    1.8975    2.0560 H   0  0  0  0  0  0  0  0  0  0  0  0
   -2.8932   -0.6946    0.8839 H   0  0  0  0  0  0  0  0  0  0  0  0
   -3.6429   -0.4583   -0.7082 H   0  0  0  0  0  0  0  0  0  0  0  0
    1.4081    1.2352    2.8953 H   0  0  0  0  0  0  0  0  0  0  0  0
    0.9506   -0.4601    2.8208 H   0  0  0  0  0  0  0  0  0  0  0  0
    1.6358   -0.2327   -3.0251 H   0  0  0  0  0  0  0  0  0  0  0  0
    0.3286   -1.4182   -3.0164 H   0  0  0  0  0  0  0  0  0  0  0  0
   -0.0291    0.2707   -2.7182 H   0  0  0  0  0  0  0  0  0  0  0  0
    1.2331   -2.8852   -1.4330 H   0  0  0  0  0  0  0  0  0  0  0  0
    1.8931   -2.4001    0.1221 H   0  0  0  0  0  0  0  0  0  0  0  0
    2.7386   -1.9576   -1.3703 H   0  0  0  0  0  0  0  0  0  0  0  0
   -2.2871    2.9931    0.4641 H   0  0  0  0  0  0  0  0  0  0  0  0
   -3.7933    2.1885    0.0063 H   0  0  0  0  0  0  0  0  0  0  0  0
   -3.0063    1.7693    1.5284 H   0  0  0  0  0  0  0  0  0  0  0  0
    3.4997   -0.5107    2.4859 H   0  0  0  0  0  0  0  0  0  0  0  0
    4.0144   -0.5120    0.7064 H   0  0  0  0  0  0  0  0  0  0  0  0
  1  2  1  6  0  0  0
  1  5  1  0  0  0  0
  1  8  1  0  0  0  0
  2  3  1  0  0  0  0
  2  7  1  0  0  0  0
  2 16  1  1  0  0  0
  3  4  1  0  0  0  0
  3 12  1  0  0  0  0
  3 13  1  0  0  0  0
  4  5  1  0  0  0  0
  4 10  1  0  0  0  0
  4 17  1  6  0  0  0
  5 18  1  0  0  0  0
  5 19  1  0  0  0  0
  6  1  1  1  0  0  0
  6  9  1  0  0  0  0
  6 14  1  0  0  0  0
  6 20  1  0  0  0  0
  7  9  1  0  0  0  0
  7 21  1  0  0  0  0
  7 22  1  0  0  0  0
  8 11  1  0  0  0  0
  8 23  1  0  0  0  0
  8 24  1  0  0  0  0
  9 25  1  0  0  0  0
  9 26  1  0  0  0  0
 10 11  1  0  0  0  0
 10 15  2  0  0  0  0
 11 27  1  0  0  0  0
 11 28  1  0  0  0  0
 12 32  1  0  0  0  0
 12 33  1  0  0  0  0
 12 34  1  0  0  0  0
 13 29  1  0  0  0  0
 13 30  1  0  0  0  0
 13 31  1  0  0  0  0
 14 35  1  0  0  0  0
 14 36  1  0  0  0  0
 14 37  1  0  0  0  0
 15 38  1  0  0  0  0
 15 39  1  0  0  0  0
M  END
> <PUBCHEM_COMPOUND_CID>
11106485

> <PUBCHEM_COMPOUND_CANONICALIZED>
1

> <PUBCHEM_CACTVS_COMPLEXITY>
312

> <PUBCHEM_CACTVS_HBOND_ACCEPTOR>
0

> <PUBCHEM_CACTVS_HBOND_DONOR>
0

> <PUBCHEM_CACTVS_ROTATABLE_BOND>
0

> <PUBCHEM_CACTVS_SUBSKEYS>
AAADceBwAAAAAAAAAAAAAAAAAAAAAYMAAAAwAAAABgAYAADAAAAAGAAAAAAADwCAAAACAAAAAACAAgBCAAAAAAAgAAAAAAAAAAgAAAIAAQAAAAAAgAAAAAEAgMAPgAAAAAAAAAAAAAQAAAAAAQAACAAAAA==

> <PUBCHEM_IUPAC_OPENEYE_NAME>
(1~{S},2~{R},5~{S},7~{S})-2,6,6-trimethyl-8-methylene-tricyclo[5.3.1.0^{1,5}]undecane

> <PUBCHEM_IUPAC_CAS_NAME>
(1~{S},2~{R},5~{S},7~{S})-2,6,6-trimethyl-8-methylenetricyclo[5.3.1.0^{1,5}]undecane

> <PUBCHEM_IUPAC_NAME>
(1~{S},2~{R},5~{S},7~{S})-2,6,6-trimethyl-8-methylidenetricyclo[5.3.1.0^{1,5}]undecane

> <PUBCHEM_IUPAC_SYSTEMATIC_NAME>
(1~{S},2~{R},5~{S},7~{S})-2,6,6-trimethyl-8-methylidene-tricyclo[5.3.1.0^{1,5}]undecane

> <PUBCHEM_IUPAC_TRADITIONAL_NAME>
(1~{S},2~{R},5~{S},7~{S})-2,6,6-trimethyl-8-methylene-tricyclo[5.3.1.0^{1,5}]undecane

> <PUBCHEM_IUPAC_INCHI>
InChI=1S/C15H24/c1-10-7-8-15-9-12(10)14(3,4)13(15)6-5-11(15)2/h11-13H,1,5-9H2,2-4H3/t11-,12+,13+,15+/m1/s1

> <PUBCHEM_IUPAC_INCHIKEY>
DYLPEFGBWGEFBB-OSFYFWSMSA-N

> <PUBCHEM_XLOGP3_AA>
4.9

> <PUBCHEM_EXACT_MASS>
204.188

> <PUBCHEM_MOLECULAR_FORMULA>
C15H24

> <PUBCHEM_MOLECULAR_WEIGHT>
204.357

> <PUBCHEM_OPENEYE_CAN_SMILES>
CC1CCC2C13CCC(=C)C(C3)C2(C)C

> <PUBCHEM_OPENEYE_ISO_SMILES>
C[C@@H]1CC[C@@H]2[C@]13CCC(=C)[C@H](C3)C2(C)C

> <PUBCHEM_CACTVS_TPSA>
0

> <PUBCHEM_MONOISOTOPIC_WEIGHT>
204.188

> <PUBCHEM_TOTAL_CHARGE>
0

> <PUBCHEM_HEAVY_ATOM_COUNT>
15

> <PUBCHEM_ATOM_DEF_STEREO_COUNT>
4

> <PUBCHEM_ATOM_UDEF_STEREO_COUNT>
0

> <PUBCHEM_BOND_DEF_STEREO_COUNT>
0

> <PUBCHEM_BOND_UDEF_STEREO_COUNT>
0

> <PUBCHEM_ISOTOPIC_ATOM_COUNT>
0

> <PUBCHEM_COMPONENT_COUNT>
1

> <PUBCHEM_CACTVS_TAUTO_COUNT>
1

> <PUBCHEM_COORDINATE_TYPE>
1 __ 5 __ 255

> <PUBCHEM_BONDANNOTATIONS>
1  5  5 __ 2  16  6 __ 4  17  5 __ 6  14  6

$$$$
442353
 OpenBabel02201912233D

 39 40  0  0  1  0  0  0  0  0999 V2000
    0.0140   -0.3129   -0.2598 C   0  0  1  0  0  0  0  0  0  0  0  0
   -0.3796    1.1731   -0.7631 C   0  0  0  0  0  0  0  0  0  0  0  0
   -1.6443    1.6995   -0.0095 C   0  0  0  0  0  0  0  0  0  0  0  0
    1.1359   -0.9960   -1.1156 C   0  0  0  0  0  0  0  0  0  0  0  0
    0.5506   -0.3358    1.2128 C   0  0  0  0  0  0  0  0  0  0  0  0
   -1.2916   -1.1774   -0.2948 C   0  0  0  0  0  0  0  0  0  0  0  0
   -2.8404    0.7613   -0.0563 C   0  0  0  0  0  0  0  0  0  0  0  0
   -2.4733   -0.6162    0.4663 C   0  0  0  0  0  0  0  0  0  0  0  0
   -0.6770    1.1739   -2.2851 C   0  0  0  0  0  0  0  0  0  0  0  0
    0.6820    2.2775   -0.5336 C   0  0  0  0  0  0  0  0  0  0  0  0
    2.5296   -0.3755   -1.0111 C   0  0  0  0  0  0  0  0  0  0  0  0
    1.9847    0.0926    1.3759 C   0  0  0  0  0  0  0  0  0  0  0  0
    2.8748    0.1179    0.3685 C   0  0  0  0  0  0  0  0  0  0  0  0
   -1.4562   -2.3427   -0.9502 C   0  0  0  0  0  0  0  0  0  0  0  0
    4.2388    0.7124    0.5520 C   0  0  0  0  0  0  0  0  0  0  0  0
   -1.9517    2.6695   -0.4225 H   0  0  0  0  0  0  0  0  0  0  0  0
   -1.3946    1.8935    1.0419 H   0  0  0  0  0  0  0  0  0  0  0  0
    1.2496   -2.0371   -0.7726 H   0  0  0  0  0  0  0  0  0  0  0  0
    0.8515   -1.0666   -2.1723 H   0  0  0  0  0  0  0  0  0  0  0  0
   -0.0659    0.3002    1.8552 H   0  0  0  0  0  0  0  0  0  0  0  0
    0.4691   -1.3484    1.6297 H   0  0  0  0  0  0  0  0  0  0  0  0
   -3.6525    1.1788    0.5503 H   0  0  0  0  0  0  0  0  0  0  0  0
   -3.2244    0.6897   -1.0808 H   0  0  0  0  0  0  0  0  0  0  0  0
   -2.2349   -0.5665    1.5342 H   0  0  0  0  0  0  0  0  0  0  0  0
   -3.3540   -1.2660    0.3820 H   0  0  0  0  0  0  0  0  0  0  0  0
    0.9477    2.3842    0.5213 H   0  0  0  0  0  0  0  0  0  0  0  0
    1.5883    2.1289   -1.1199 H   0  0  0  0  0  0  0  0  0  0  0  0
    0.2930    3.2561   -0.8456 H   0  0  0  0  0  0  0  0  0  0  0  0
   -1.0563    2.1501   -2.6102 H   0  0  0  0  0  0  0  0  0  0  0  0
    0.2297    0.9804   -2.8685 H   0  0  0  0  0  0  0  0  0  0  0  0
   -1.4213    0.4245   -2.5672 H   0  0  0  0  0  0  0  0  0  0  0  0
    3.2653   -1.1326   -1.3112 H   0  0  0  0  0  0  0  0  0  0  0  0
    2.6268    0.4367   -1.7380 H   0  0  0  0  0  0  0  0  0  0  0  0
    2.2727    0.4464    2.3632 H   0  0  0  0  0  0  0  0  0  0  0  0
   -2.4032   -2.8753   -0.9267 H   0  0  0  0  0  0  0  0  0  0  0  0
   -0.6745   -2.8175   -1.5320 H   0  0  0  0  0  0  0  0  0  0  0  0
    4.1604    1.7233    0.9674 H   0  0  0  0  0  0  0  0  0  0  0  0
    4.8476    0.0962    1.2197 H   0  0  0  0  0  0  0  0  0  0  0  0
    4.7648    0.7996   -0.4047 H   0  0  0  0  0  0  0  0  0  0  0  0
  1  2  1  0  0  0  0
  1  4  1  0  0  0  0
  1  5  1  0  0  0  0
  1  6  1  6  0  0  0
  2  3  1  0  0  0  0
  2  9  1  0  0  0  0
  2 10  1  0  0  0  0
  3  7  1  0  0  0  0
  3 16  1  0  0  0  0
  3 17  1  0  0  0  0
  4 11  1  0  0  0  0
  4 18  1  0  0  0  0
  4 19  1  0  0  0  0
  5 12  1  0  0  0  0
  5 20  1  0  0  0  0
  5 21  1  0  0  0  0
  6  8  1  0  0  0  0
  6 14  2  0  0  0  0
  7  8  1  0  0  0  0
  7 22  1  0  0  0  0
  7 23  1  0  0  0  0
  8 24  1  0  0  0  0
  8 25  1  0  0  0  0
  9 29  1  0  0  0  0
  9 30  1  0  0  0  0
  9 31  1  0  0  0  0
 10 26  1  0  0  0  0
 10 27  1  0  0  0  0
 10 28  1  0  0  0  0
 11 13  1  0  0  0  0
 11 32  1  0  0  0  0
 11 33  1  0  0  0  0
 12 13  2  0  0  0  0
 12 34  1  0  0  0  0
 13 15  1  0  0  0  0
 14 35  1  0  0  0  0
 14 36  1  0  0  0  0
 15 37  1  0  0  0  0
 15 38  1  0  0  0  0
 15 39  1  0  0  0  0
M  END
> <PUBCHEM_COMPOUND_CID>
442353

> <PUBCHEM_COMPOUND_CANONICALIZED>
1

> <PUBCHEM_CACTVS_COMPLEXITY>
306

> <PUBCHEM_CACTVS_HBOND_ACCEPTOR>
0

> <PUBCHEM_CACTVS_HBOND_DONOR>
0

> <PUBCHEM_CACTVS_ROTATABLE_BOND>
0

> <PUBCHEM_CACTVS_SUBSKEYS>
AAADceBwAAAAAAAAAAAAAAAAAAAAAAAAAAAwQAAAAAAAAAAAAAAAGAAAAAAADgCAAAACAAAAAACAAiBCAAAAAAAgAAAACAAAAAgAAAIAAQAAAAAAgAAIAAMAgMAPgAAAAAAAAAAAAAAAACAAAAAAAAAAAA==

> <PUBCHEM_IUPAC_OPENEYE_NAME>
(6~{R})-5,5,9-trimethyl-1-methylene-spiro[5.5]undec-9-ene

> <PUBCHEM_IUPAC_CAS_NAME>
(6~{R})-5,5,9-trimethyl-1-methylenespiro[5.5]undec-9-ene

> <PUBCHEM_IUPAC_NAME>
(6~{R})-5,5,9-trimethyl-1-methylidenespiro[5.5]undec-9-ene

> <PUBCHEM_IUPAC_SYSTEMATIC_NAME>
(6~{R})-5,5,9-trimethyl-1-methylidene-spiro[5.5]undec-9-ene

> <PUBCHEM_IUPAC_TRADITIONAL_NAME>
(6~{R})-5,5,9-trimethyl-1-methylene-spiro[5.5]undec-9-ene

> <PUBCHEM_IUPAC_INCHI>
InChI=1S/C15H24/c1-12-7-10-15(11-8-12)13(2)6-5-9-14(15,3)4/h7H,2,5-6,8-11H2,1,3-4H3/t15-/m1/s1

> <PUBCHEM_IUPAC_INCHIKEY>
WLNGPDPILFYWKF-OAHLLOKOSA-N

> <PUBCHEM_XLOGP3_AA>
4.7

> <PUBCHEM_EXACT_MASS>
204.188

> <PUBCHEM_MOLECULAR_FORMULA>
C15H24

> <PUBCHEM_MOLECULAR_WEIGHT>
204.357

> <PUBCHEM_OPENEYE_CAN_SMILES>
CC1=CCC2(CC1)C(=C)CCCC2(C)C

> <PUBCHEM_OPENEYE_ISO_SMILES>
CC1=CC[C@@]2(CC1)C(=C)CCCC2(C)C

> <PUBCHEM_CACTVS_TPSA>
0

> <PUBCHEM_MONOISOTOPIC_WEIGHT>
204.188

> <PUBCHEM_TOTAL_CHARGE>
0

> <PUBCHEM_HEAVY_ATOM_COUNT>
15

> <PUBCHEM_ATOM_DEF_STEREO_COUNT>
1

> <PUBCHEM_ATOM_UDEF_STEREO_COUNT>
0

> <PUBCHEM_BOND_DEF_STEREO_COUNT>
0

> <PUBCHEM_BOND_UDEF_STEREO_COUNT>
0

> <PUBCHEM_ISOTOPIC_ATOM_COUNT>
0

> <PUBCHEM_COMPONENT_COUNT>
1

> <PUBCHEM_CACTVS_TAUTO_COUNT>
1

> <PUBCHEM_COORDINATE_TYPE>
1 __ 5 __ 255

> <PUBCHEM_BONDANNOTATIONS>
1  4  5

$$$$
87529
 OpenBabel02201912233D

 39 41  0  0  1  0  0  0  0  0999 V2000
   -0.1289   -0.4665   -0.9904 C   0  0  2  0  0  0  0  0  0  0  0  0
   -0.6126    0.8173    0.6227 C   0  0  3  0  0  0  0  0  0  0  0  0
    0.4224   -0.4656    0.5098 C   0  0  3  0  0  0  0  0  0  0  0  0
   -0.0344    1.1168   -0.7904 C   0  0  3  0  0  0  0  0  0  0  0  0
   -2.1101    0.4102    0.8129 C   0  0  1  0  0  0  0  0  0  0  0  0
   -1.3498   -1.4070   -0.8340 C   0  0  0  0  0  0  0  0  0  0  0  0
    1.9476   -0.4940    0.4713 C   0  0  0  0  0  0  0  0  0  0  0  0
   -2.5096   -0.7391   -0.1285 C   0  0  0  0  0  0  0  0  0  0  0  0
    1.4289    1.6738   -0.6802 C   0  0  0  0  0  0  0  0  0  0  0  0
    0.5203   -0.7521   -2.3452 C   0  0  0  0  0  0  0  0  0  0  0  0
    2.4362    0.9216    0.1636 C   0  0  0  0  0  0  0  0  0  0  0  0
   -2.5198    0.2195    2.3111 C   0  0  0  0  0  0  0  0  0  0  0  0
    1.8476    2.7393   -1.3858 C   0  0  0  0  0  0  0  0  0  0  0  0
   -1.6774   -0.7565    3.1311 C   0  0  0  0  0  0  0  0  0  0  0  0
   -2.5492    1.5885    3.0043 C   0  0  0  0  0  0  0  0  0  0  0  0
   -0.4721    1.7560    1.1700 H   0  0  0  0  0  0  0  0  0  0  0  0
    0.1381   -1.3120    1.1421 H   0  0  0  0  0  0  0  0  0  0  0  0
   -0.6443    1.7509   -1.4274 H   0  0  0  0  0  0  0  0  0  0  0  0
   -2.7356    1.2467    0.4708 H   0  0  0  0  0  0  0  0  0  0  0  0
   -1.0460   -2.3028   -0.2676 H   0  0  0  0  0  0  0  0  0  0  0  0
   -1.6894   -1.8045   -1.7953 H   0  0  0  0  0  0  0  0  0  0  0  0
    2.3712   -0.8457    1.4076 H   0  0  0  0  0  0  0  0  0  0  0  0
    2.2936   -1.1725   -0.2978 H   0  0  0  0  0  0  0  0  0  0  0  0
   -3.1270   -1.5026    0.3689 H   0  0  0  0  0  0  0  0  0  0  0  0
   -3.1523   -0.3136   -0.9141 H   0  0  0  0  0  0  0  0  0  0  0  0
   -0.1887   -0.4526   -3.1593 H   0  0  0  0  0  0  0  0  0  0  0  0
    1.4547   -0.2061   -2.5194 H   0  0  0  0  0  0  0  0  0  0  0  0
    0.7280   -1.8060   -2.4676 H   0  0  0  0  0  0  0  0  0  0  0  0
    2.6324    1.4409    1.1147 H   0  0  0  0  0  0  0  0  0  0  0  0
    3.4253    0.8413   -0.3267 H   0  0  0  0  0  0  0  0  0  0  0  0
   -3.5514   -0.1621    2.3426 H   0  0  0  0  0  0  0  0  0  0  0  0
    1.1915    3.3248   -2.0124 H   0  0  0  0  0  0  0  0  0  0  0  0
    2.8807    3.0858   -1.3217 H   0  0  0  0  0  0  0  0  0  0  0  0
   -0.6313   -0.4354    3.1911 H   0  0  0  0  0  0  0  0  0  0  0  0
   -2.0152   -0.7988    4.1602 H   0  0  0  0  0  0  0  0  0  0  0  0
   -1.7152   -1.7679    2.7184 H   0  0  0  0  0  0  0  0  0  0  0  0
   -3.2426    2.2613    2.4863 H   0  0  0  0  0  0  0  0  0  0  0  0
   -2.8834    1.5163    4.0459 H   0  0  0  0  0  0  0  0  0  0  0  0
   -1.5622    2.0597    3.0099 H   0  0  0  0  0  0  0  0  0  0  0  0
  1  3  1  1  0  0  0
  1  4  1  0  0  0  0
  1  6  1  0  0  0  0
  1 10  1  0  0  0  0
  2  3  1  0  0  0  0
  2  4  1  0  0  0  0
  2 16  1  0  0  0  0
  3  7  1  0  0  0  0
  3 17  1  0  0  0  0
  4  9  1  0  0  0  0
  4 18  1  0  0  0  0
  5  2  1  6  0  0  0
  5  8  1  0  0  0  0
  5 19  1  0  0  0  0
  5 12  1  0  0  0  0
  6  8  1  0  0  0  0
  6 20  1  0  0  0  0
  6 21  1  0  0  0  0
  7 11  1  0  0  0  0
  7 22  1  0  0  0  0
  7 23  1  0  0  0  0
  8 24  1  0  0  0  0
  8 25  1  0  0  0  0
  9 11  1  0  0  0  0
  9 13  2  0  0  0  0
 10 26  1  0  0  0  0
 10 27  1  0  0  0  0
 10 28  1  0  0  0  0
 11 29  1  0  0  0  0
 11 30  1  0  0  0  0
 12 14  1  0  0  0  0
 12 15  1  0  0  0  0
 12 31  1  0  0  0  0
 13 32  1  0  0  0  0
 13 33  1  0  0  0  0
 14 34  1  0  0  0  0
 14 35  1  0  0  0  0
 14 36  1  0  0  0  0
 15 37  1  0  0  0  0
 15 38  1  0  0  0  0
 15 39  1  0  0  0  0
M  END
> <PUBCHEM_COMPOUND_CID>
87529

> <PUBCHEM_COMPOUND_CANONICALIZED>
1

> <PUBCHEM_CACTVS_COMPLEXITY>
301

> <PUBCHEM_CACTVS_HBOND_ACCEPTOR>
0

> <PUBCHEM_CACTVS_HBOND_DONOR>
0

> <PUBCHEM_CACTVS_ROTATABLE_BOND>
1

> <PUBCHEM_CACTVS_SUBSKEYS>
AAADceBwAAAAAAAAAAAAAAAAAABgAAAAAAAwYMGAAAAAAAAAAAAAGAAAAAAADwCAAAACAAAAAACAAgBCAAAAAAAgAAAAAAAAAAgAAAIAAQAAAAAAgAAAAAEAgMAPgAAAAAAAAACAAAQAACAAAAAAAAAAAA==

> <PUBCHEM_IUPAC_OPENEYE_NAME>
(1~{R},2~{S},8~{S})-8-isopropyl-1-methyl-3-methylene-tricyclo[4.4.0.0^{2,7}]decane

> <PUBCHEM_IUPAC_CAS_NAME>
(1~{R},2~{S},8~{S})-1-methyl-3-methylene-8-propan-2-yltricyclo[4.4.0.0^{2,7}]decane

> <PUBCHEM_IUPAC_NAME>
(1~{R},2~{S},8~{S})-1-methyl-3-methylidene-8-propan-2-yltricyclo[4.4.0.0^{2,7}]decane

> <PUBCHEM_IUPAC_SYSTEMATIC_NAME>
(1~{R},2~{S},8~{S})-1-methyl-3-methylidene-8-propan-2-yl-tricyclo[4.4.0.0^{2,7}]decane

> <PUBCHEM_IUPAC_TRADITIONAL_NAME>
(1~{R},2~{S},8~{S})-8-isopropyl-1-methyl-3-methylene-tricyclo[4.4.0.0^{2,7}]decane

> <PUBCHEM_IUPAC_INCHI>
InChI=1S/C15H24/c1-9(2)11-7-8-15(4)12-6-5-10(3)14(15)13(11)12/h9,11-14H,3,5-8H2,1-2,4H3/t11-,12?,13?,14+,15+/m0/s1

> <PUBCHEM_IUPAC_INCHIKEY>
UPVZPMJSRSWJHQ-HTXSYXIBSA-N

> <PUBCHEM_XLOGP3_AA>
4.7

> <PUBCHEM_EXACT_MASS>
204.188

> <PUBCHEM_MOLECULAR_FORMULA>
C15H24

> <PUBCHEM_MOLECULAR_WEIGHT>
204.357

> <PUBCHEM_OPENEYE_CAN_SMILES>
CC(C)C1CCC2(C3C1C2C(=C)CC3)C

> <PUBCHEM_OPENEYE_ISO_SMILES>
CC(C)[C@@H]1CC[C@]2([C@H]3C1C2CCC3=C)C

> <PUBCHEM_CACTVS_TPSA>
0

> <PUBCHEM_MONOISOTOPIC_WEIGHT>
204.188

> <PUBCHEM_TOTAL_CHARGE>
0

> <PUBCHEM_HEAVY_ATOM_COUNT>
15

> <PUBCHEM_ATOM_DEF_STEREO_COUNT>
3

> <PUBCHEM_ATOM_UDEF_STEREO_COUNT>
2

> <PUBCHEM_BOND_DEF_STEREO_COUNT>
0

> <PUBCHEM_BOND_UDEF_STEREO_COUNT>
0

> <PUBCHEM_ISOTOPIC_ATOM_COUNT>
0

> <PUBCHEM_COMPONENT_COUNT>
1

> <PUBCHEM_CACTVS_TAUTO_COUNT>
-1

> <PUBCHEM_COORDINATE_TYPE>
1 __ 5 __ 255

> <PUBCHEM_BONDANNOTATIONS>
1  10  5 __ 2  4  3 __ 3  17  3 __ 5  12  6

$$$$
6918391
 OpenBabel02201912233D

 39 39  0  0  1  0  0  0  0  0999 V2000
    0.7418    1.2865   -0.3577 C   0  0  2  0  0  0  0  0  0  0  0  0
    1.5137   -0.0387    0.0422 C   0  0  1  0  0  0  0  0  0  0  0  0
   -0.7306   -1.3074    0.1891 C   0  0  1  0  0  0  0  0  0  0  0  0
    0.7190   -1.3133   -0.3339 C   0  0  0  0  0  0  0  0  0  0  0  0
   -0.6631    1.2204    0.3085 C   0  0  0  0  0  0  0  0  0  0  0  0
   -1.4681   -0.0020   -0.1276 C   0  0  0  0  0  0  0  0  0  0  0  0
    0.5500    1.4572   -1.8872 C   0  0  0  0  0  0  0  0  0  0  0  0
    2.9769   -0.2192   -0.3968 C   0  0  0  0  0  0  0  0  0  0  0  0
    1.4770    2.5014    0.2189 C   0  0  0  0  0  0  0  0  0  0  0  0
   -1.5215   -2.5115   -0.3090 C   0  0  0  0  0  0  0  0  0  0  0  0
    3.8437   -1.0480    0.5230 C   0  0  0  0  0  0  0  0  0  0  0  0
   -1.7022   -2.6978   -1.7944 C   0  0  0  0  0  0  0  0  0  0  0  0
    3.5499    0.2873   -1.5025 C   0  0  0  0  0  0  0  0  0  0  0  0
    1.1385    3.7859    0.0364 C   0  0  0  0  0  0  0  0  0  0  0  0
   -2.0704   -3.3924    0.5408 C   0  0  0  0  0  0  0  0  0  0  0  0
    1.5492   -0.0165    1.1448 H   0  0  0  0  0  0  0  0  0  0  0  0
   -0.6640   -1.3693    1.2855 H   0  0  0  0  0  0  0  0  0  0  0  0
    0.7432   -1.4472   -1.4203 H   0  0  0  0  0  0  0  0  0  0  0  0
    1.2230   -2.1974    0.0813 H   0  0  0  0  0  0  0  0  0  0  0  0
   -0.5606    1.2073    1.4028 H   0  0  0  0  0  0  0  0  0  0  0  0
   -1.2475    2.1195    0.0714 H   0  0  0  0  0  0  0  0  0  0  0  0
   -1.6968    0.0704   -1.1970 H   0  0  0  0  0  0  0  0  0  0  0  0
   -2.4359    0.0097    0.3900 H   0  0  0  0  0  0  0  0  0  0  0  0
   -0.4261    1.8958   -2.1267 H   0  0  0  0  0  0  0  0  0  0  0  0
    1.2927    2.1303   -2.3292 H   0  0  0  0  0  0  0  0  0  0  0  0
    0.6077    0.5068   -2.4252 H   0  0  0  0  0  0  0  0  0  0  0  0
    2.3556    2.2990    0.8316 H   0  0  0  0  0  0  0  0  0  0  0  0
    4.3965   -1.8058   -0.0429 H   0  0  0  0  0  0  0  0  0  0  0  0
    4.5599   -0.4056    1.0468 H   0  0  0  0  0  0  0  0  0  0  0  0
    3.2539   -1.5753    1.2789 H   0  0  0  0  0  0  0  0  0  0  0  0
   -1.2671   -3.6503   -2.1145 H   0  0  0  0  0  0  0  0  0  0  0  0
   -2.7649   -2.6857   -2.0567 H   0  0  0  0  0  0  0  0  0  0  0  0
   -1.2195   -1.9068   -2.3765 H   0  0  0  0  0  0  0  0  0  0  0  0
    3.0272    0.8881   -2.2308 H   0  0  0  0  0  0  0  0  0  0  0  0
    4.6008    0.1045   -1.7191 H   0  0  0  0  0  0  0  0  0  0  0  0
    1.7257    4.5809    0.4871 H   0  0  0  0  0  0  0  0  0  0  0  0
    0.2761    4.0746   -0.5546 H   0  0  0  0  0  0  0  0  0  0  0  0
   -1.9783   -3.2854    1.6161 H   0  0  0  0  0  0  0  0  0  0  0  0
   -2.6437   -4.2411    0.1788 H   0  0  0  0  0  0  0  0  0  0  0  0
  1  2  1  1  0  0  0
  1  5  1  0  0  0  0
  1  9  1  0  0  0  0
  1  7  1  0  0  0  0
  2  4  1  0  0  0  0
  2  8  1  0  0  0  0
  2 16  1  1  0  0  0
  3  4  1  0  0  0  0
  3  6  1  0  0  0  0
  3 10  1  0  0  0  0
  3 17  1  1  0  0  0
  4 18  1  0  0  0  0
  4 19  1  0  0  0  0
  5  6  1  0  0  0  0
  5 20  1  0  0  0  0
  5 21  1  0  0  0  0
  6 22  1  0  0  0  0
  6 23  1  0  0  0  0
  7 24  1  0  0  0  0
  7 25  1  0  0  0  0
  7 26  1  0  0  0  0
  8 11  1  0  0  0  0
  8 13  2  0  0  0  0
  9 14  2  0  0  0  0
  9 27  1  0  0  0  0
 10 12  1  0  0  0  0
 10 15  2  0  0  0  0
 11 28  1  0  0  0  0
 11 29  1  0  0  0  0
 11 30  1  0  0  0  0
 12 31  1  0  0  0  0
 12 32  1  0  0  0  0
 12 33  1  0  0  0  0
 13 34  1  0  0  0  0
 13 35  1  0  0  0  0
 14 36  1  0  0  0  0
 14 37  1  0  0  0  0
 15 38  1  0  0  0  0
 15 39  1  0  0  0  0
M  END
> <PUBCHEM_COMPOUND_CID>
6918391

> <PUBCHEM_COMPOUND_CANONICALIZED>
1

> <PUBCHEM_CACTVS_COMPLEXITY>
284

> <PUBCHEM_CACTVS_HBOND_ACCEPTOR>
0

> <PUBCHEM_CACTVS_HBOND_DONOR>
0

> <PUBCHEM_CACTVS_ROTATABLE_BOND>
3

> <PUBCHEM_CACTVS_SUBSKEYS>
AAADceBwAAAAAAAAAAAAAAAAAAAAAAAAAAAwAAAAAAAAAAAAAAAAGAAAAAAADwCAAAACAAAAAACAAiBCAAAAAAAgAAAIAAAAAAgAAAIAAQAAAAAAgAAAAAEAgMAPgAAAAAAAAACAAAQAACAAAAAAAAAAAA==

> <PUBCHEM_IUPAC_OPENEYE_NAME>
(1~{S},2~{S},4~{R})-2,4-diisopropenyl-1-methyl-1-vinyl-cyclohexane

> <PUBCHEM_IUPAC_CAS_NAME>
(1~{S},2~{S},4~{R})-1-ethenyl-1-methyl-2,4-bis(1-methylethenyl)cyclohexane

> <PUBCHEM_IUPAC_NAME>
(1~{S},2~{S},4~{R})-1-ethenyl-1-methyl-2,4-bis(prop-1-en-2-yl)cyclohexane

> <PUBCHEM_IUPAC_SYSTEMATIC_NAME>
(1~{S},2~{S},4~{R})-1-ethenyl-1-methyl-2,4-bis(prop-1-en-2-yl)cyclohexane

> <PUBCHEM_IUPAC_TRADITIONAL_NAME>
(1~{S},2~{S},4~{R})-2,4-diisopropenyl-1-methyl-1-vinyl-cyclohexane

> <PUBCHEM_IUPAC_INCHI>
InChI=1S/C15H24/c1-7-15(6)9-8-13(11(2)3)10-14(15)12(4)5/h7,13-14H,1-2,4,8-10H2,3,5-6H3/t13-,14+,15-/m1/s1

> <PUBCHEM_IUPAC_INCHIKEY>
OPFTUNCRGUEPRZ-QLFBSQMISA-N

> <PUBCHEM_XLOGP3_AA>
6.1

> <PUBCHEM_EXACT_MASS>
204.188

> <PUBCHEM_MOLECULAR_FORMULA>
C15H24

> <PUBCHEM_MOLECULAR_WEIGHT>
204.357

> <PUBCHEM_OPENEYE_CAN_SMILES>
CC(=C)C1CCC(C(C1)C(=C)C)(C)C=C

> <PUBCHEM_OPENEYE_ISO_SMILES>
CC(=C)[C@@H]1CC[C@@]([C@@H](C1)C(=C)C)(C)C=C

> <PUBCHEM_CACTVS_TPSA>
0

> <PUBCHEM_MONOISOTOPIC_WEIGHT>
204.188

> <PUBCHEM_TOTAL_CHARGE>
0

> <PUBCHEM_HEAVY_ATOM_COUNT>
15

> <PUBCHEM_ATOM_DEF_STEREO_COUNT>
3

> <PUBCHEM_ATOM_UDEF_STEREO_COUNT>
0

> <PUBCHEM_BOND_DEF_STEREO_COUNT>
0

> <PUBCHEM_BOND_UDEF_STEREO_COUNT>
0

> <PUBCHEM_ISOTOPIC_ATOM_COUNT>
0

> <PUBCHEM_COMPONENT_COUNT>
1

> <PUBCHEM_CACTVS_TAUTO_COUNT>
1

> <PUBCHEM_COORDINATE_TYPE>
1 __ 5 __ 255

> <PUBCHEM_BONDANNOTATIONS>
1  7  5 __ 2  8  5 __ 3  10  5

$$$$
6429302
 OpenBabel02201912233D

 39 40  0  0  1  0  0  0  0  0999 V2000
   -0.8977    0.0215    1.1443 C   0  0  2  0  0  0  0  0  0  0  0  0
   -0.5752    1.0293   -0.0532 C   0  0  2  0  0  0  0  0  0  0  0  0
   -0.4119   -1.0715    0.0810 C   0  0  1  0  0  0  0  0  0  0  0  0
   -0.9731   -0.1111   -1.0334 C   0  0  0  0  0  0  0  0  0  0  0  0
    0.9315    1.3286   -0.2724 C   0  0  0  0  0  0  0  0  0  0  0  0
   -2.3492   -0.1266    1.6969 C   0  0  0  0  0  0  0  0  0  0  0  0
    1.0814   -1.1590   -0.0792 C   0  0  0  0  0  0  0  0  0  0  0  0
   -0.0239    0.3063    2.3921 C   0  0  0  0  0  0  0  0  0  0  0  0
    1.7130    0.0220   -0.2676 C   0  0  0  0  0  0  0  0  0  0  0  0
   -3.4277   -0.5853    0.7225 C   0  0  0  0  0  0  0  0  0  0  0  0
    1.7143   -2.5094   -0.0663 C   0  0  0  0  0  0  0  0  0  0  0  0
   -4.7738   -0.6958    1.3834 C   0  0  0  0  0  0  0  0  0  0  0  0
   -5.9082   -0.1334    0.9209 C   0  0  0  0  0  0  0  0  0  0  0  0
   -7.1998   -0.2432    1.6762 C   0  0  0  0  0  0  0  0  0  0  0  0
   -5.9704    0.6387   -0.3653 C   0  0  0  0  0  0  0  0  0  0  0  0
   -1.1966    1.9298   -0.0893 H   0  0  0  0  0  0  0  0  0  0  0  0
   -0.8972   -2.0497    0.1427 H   0  0  0  0  0  0  0  0  0  0  0  0
   -0.4544   -0.1187   -2.0007 H   0  0  0  0  0  0  0  0  0  0  0  0
   -2.0256   -0.2030   -1.2902 H   0  0  0  0  0  0  0  0  0  0  0  0
    1.3082    1.9911    0.5144 H   0  0  0  0  0  0  0  0  0  0  0  0
    1.0742    1.8349   -1.2331 H   0  0  0  0  0  0  0  0  0  0  0  0
   -2.3276   -0.8558    2.5195 H   0  0  0  0  0  0  0  0  0  0  0  0
   -2.6531    0.8297    2.1444 H   0  0  0  0  0  0  0  0  0  0  0  0
    1.0512    0.2590    2.2124 H   0  0  0  0  0  0  0  0  0  0  0  0
   -0.2398    1.3110    2.7764 H   0  0  0  0  0  0  0  0  0  0  0  0
   -0.2303   -0.4099    3.1948 H   0  0  0  0  0  0  0  0  0  0  0  0
    2.7854    0.0657   -0.4186 H   0  0  0  0  0  0  0  0  0  0  0  0
   -3.4946    0.1381   -0.0897 H   0  0  0  0  0  0  0  0  0  0  0  0
   -3.1748   -1.5643    0.2999 H   0  0  0  0  0  0  0  0  0  0  0  0
    1.4414   -3.0467    0.8474 H   0  0  0  0  0  0  0  0  0  0  0  0
    1.3701   -3.0937   -0.9256 H   0  0  0  0  0  0  0  0  0  0  0  0
    2.8053   -2.4465   -0.1097 H   0  0  0  0  0  0  0  0  0  0  0  0
   -4.8050   -1.2770    2.3033 H   0  0  0  0  0  0  0  0  0  0  0  0
   -5.3703    1.5516   -0.3059 H   0  0  0  0  0  0  0  0  0  0  0  0
   -5.6165    0.0304   -1.2054 H   0  0  0  0  0  0  0  0  0  0  0  0
   -6.9977    0.9368   -0.6016 H   0  0  0  0  0  0  0  0  0  0  0  0
   -7.5998    0.7562    1.8770 H   0  0  0  0  0  0  0  0  0  0  0  0
   -7.9346   -0.8045    1.0921 H   0  0  0  0  0  0  0  0  0  0  0  0
   -7.0729   -0.7476    2.6393 H   0  0  0  0  0  0  0  0  0  0  0  0
  1  2  1  6  0  0  0
  1  6  1  0  0  0  0
  1  8  1  0  0  0  0
  2  4  1  0  0  0  0
  2  5  1  0  0  0  0
  2 16  1  6  0  0  0
  3  1  1  1  0  0  0
  3  4  1  0  0  0  0
  3  7  1  0  0  0  0
  3 17  1  0  0  0  0
  4 18  1  0  0  0  0
  4 19  1  0  0  0  0
  5  9  1  0  0  0  0
  5 20  1  0  0  0  0
  5 21  1  0  0  0  0
  6 10  1  0  0  0  0
  6 22  1  0  0  0  0
  6 23  1  0  0  0  0
  7  9  2  0  0  0  0
  7 11  1  0  0  0  0
  8 24  1  0  0  0  0
  8 25  1  0  0  0  0
  8 26  1  0  0  0  0
  9 27  1  0  0  0  0
 10 12  1  0  0  0  0
 10 28  1  0  0  0  0
 10 29  1  0  0  0  0
 11 30  1  0  0  0  0
 11 31  1  0  0  0  0
 11 32  1  0  0  0  0
 12 13  2  0  0  0  0
 12 33  1  0  0  0  0
 13 14  1  0  0  0  0
 13 15  1  0  0  0  0
 14 37  1  0  0  0  0
 14 38  1  0  0  0  0
 14 39  1  0  0  0  0
 15 34  1  0  0  0  0
 15 35  1  0  0  0  0
 15 36  1  0  0  0  0
M  END
> <PUBCHEM_COMPOUND_CID>
6429302

> <PUBCHEM_COMPOUND_CANONICALIZED>
1

> <PUBCHEM_CACTVS_COMPLEXITY>
304

> <PUBCHEM_CACTVS_HBOND_ACCEPTOR>
0

> <PUBCHEM_CACTVS_HBOND_DONOR>
0

> <PUBCHEM_CACTVS_ROTATABLE_BOND>
3

> <PUBCHEM_CACTVS_SUBSKEYS>
AAADceBwAAAAAAAAAAAAAAAAAABgAAAAAAAgQAAAAAAAAAAAAAAAGAAAAAAADwCAAAACAAAAAACAAiBCAAAAAAAgAAAACAAAAAgAAAIAAQAAAAAAgAAIAAMAgMAPgAAAAAAAAAAAAAAAAAAAAAAAAAAAAA==

> <PUBCHEM_IUPAC_OPENEYE_NAME>
(1~{S},5~{S},6~{R})-2,6-dimethyl-6-(4-methylpent-3-enyl)bicyclo[3.1.1]hept-2-ene

> <PUBCHEM_IUPAC_CAS_NAME>
(1~{S},5~{S},6~{R})-2,6-dimethyl-6-(4-methylpent-3-enyl)bicyclo[3.1.1]hept-2-ene

> <PUBCHEM_IUPAC_NAME>
(1~{S},5~{S},6~{R})-2,6-dimethyl-6-(4-methylpent-3-enyl)bicyclo[3.1.1]hept-2-ene

> <PUBCHEM_IUPAC_SYSTEMATIC_NAME>
(1~{S},5~{S},6~{R})-2,6-dimethyl-6-(4-methylpent-3-enyl)bicyclo[3.1.1]hept-2-ene

> <PUBCHEM_IUPAC_TRADITIONAL_NAME>
(1~{S},5~{S},6~{R})-2,6-dimethyl-6-(4-methylpent-3-enyl)bicyclo[3.1.1]hept-2-ene

> <PUBCHEM_IUPAC_INCHI>
InChI=1S/C15H24/c1-11(2)6-5-9-15(4)13-8-7-12(3)14(15)10-13/h6-7,13-14H,5,8-10H2,1-4H3/t13-,14-,15+/m0/s1

> <PUBCHEM_IUPAC_INCHIKEY>
YMBFCQPIMVLNIU-SOUVJXGZSA-N

> <PUBCHEM_XLOGP3_AA>
4.8

> <PUBCHEM_EXACT_MASS>
204.188

> <PUBCHEM_MOLECULAR_FORMULA>
C15H24

> <PUBCHEM_MOLECULAR_WEIGHT>
204.357

> <PUBCHEM_OPENEYE_CAN_SMILES>
CC1=CCC2CC1C2(C)CCC=C(C)C

> <PUBCHEM_OPENEYE_ISO_SMILES>
CC1=CC[C@H]2C[C@@H]1[C@]2(C)CCC=C(C)C

> <PUBCHEM_CACTVS_TPSA>
0

> <PUBCHEM_MONOISOTOPIC_WEIGHT>
204.188

> <PUBCHEM_TOTAL_CHARGE>
0

> <PUBCHEM_HEAVY_ATOM_COUNT>
15

> <PUBCHEM_ATOM_DEF_STEREO_COUNT>
3

> <PUBCHEM_ATOM_UDEF_STEREO_COUNT>
0

> <PUBCHEM_BOND_DEF_STEREO_COUNT>
0

> <PUBCHEM_BOND_UDEF_STEREO_COUNT>
0

> <PUBCHEM_ISOTOPIC_ATOM_COUNT>
0

> <PUBCHEM_COMPONENT_COUNT>
1

> <PUBCHEM_CACTVS_TAUTO_COUNT>
-1

> <PUBCHEM_COORDINATE_TYPE>
1 __ 5 __ 255

> <PUBCHEM_BONDANNOTATIONS>
1  8  6 __ 2  16  6 __ 3  17  5

$$$$
5315347
 OpenBabel02201912233D

 39 40  0  0  1  0  0  0  0  0999 V2000
    2.3482    1.6868    0.1447 C   0  0  0  0  0  0  0  0  0  0  0  0
    1.8562    0.3840   -0.4788 C   0  0  3  0  0  0  0  0  0  0  0  0
    0.9361    1.6168   -0.3642 C   0  0  3  0  0  0  0  0  0  0  0  0
    1.9328   -0.8347    0.4211 C   0  0  0  0  0  0  0  0  0  0  0  0
    2.6262    1.7936    1.6257 C   0  0  0  0  0  0  0  0  0  0  0  0
    3.3527    2.4486   -0.6929 C   0  0  0  0  0  0  0  0  0  0  0  0
   -0.3396    1.3300    0.2954 C   0  0  0  0  0  0  0  0  0  0  0  0
    1.2408   -2.1375   -0.0166 C   0  0  0  0  0  0  0  0  0  0  0  0
   -1.4869    1.1044   -0.3968 C   0  0  0  0  0  0  0  0  0  0  0  0
   -0.1857   -2.0209   -0.4910 C   0  0  0  0  0  0  0  0  0  0  0  0
   -2.6525    0.3612    0.2295 C   0  0  0  0  0  0  0  0  0  0  0  0
   -2.5422   -1.1653   -0.0242 C   0  0  0  0  0  0  0  0  0  0  0  0
   -1.5880    1.3608   -1.8770 C   0  0  0  0  0  0  0  0  0  0  0  0
   -1.1712   -1.6760    0.3635 C   0  0  0  0  0  0  0  0  0  0  0  0
   -0.3975   -2.2437   -1.9613 C   0  0  0  0  0  0  0  0  0  0  0  0
    2.1425    0.1322   -1.4962 H   0  0  0  0  0  0  0  0  0  0  0  0
    0.7978    2.2674   -1.2293 H   0  0  0  0  0  0  0  0  0  0  0  0
    3.0016   -1.0694    0.5148 H   0  0  0  0  0  0  0  0  0  0  0  0
    1.5912   -0.6020    1.4368 H   0  0  0  0  0  0  0  0  0  0  0  0
    3.0260    2.5473   -1.7341 H   0  0  0  0  0  0  0  0  0  0  0  0
    3.5007    3.4580   -0.2970 H   0  0  0  0  0  0  0  0  0  0  0  0
    4.3157    1.9276   -0.6946 H   0  0  0  0  0  0  0  0  0  0  0  0
    3.5445    1.2472    1.8701 H   0  0  0  0  0  0  0  0  0  0  0  0
    2.7752    2.8397    1.9128 H   0  0  0  0  0  0  0  0  0  0  0  0
    1.8215    1.4011    2.2514 H   0  0  0  0  0  0  0  0  0  0  0  0
   -0.3180    1.1115    1.3591 H   0  0  0  0  0  0  0  0  0  0  0  0
    1.8611   -2.6261   -0.7795 H   0  0  0  0  0  0  0  0  0  0  0  0
    1.2642   -2.8275    0.8407 H   0  0  0  0  0  0  0  0  0  0  0  0
   -3.5977    0.7341   -0.1857 H   0  0  0  0  0  0  0  0  0  0  0  0
   -2.6965    0.5523    1.3077 H   0  0  0  0  0  0  0  0  0  0  0  0
   -2.7635   -1.3743   -1.0752 H   0  0  0  0  0  0  0  0  0  0  0  0
   -3.3012   -1.6918    0.5648 H   0  0  0  0  0  0  0  0  0  0  0  0
   -1.6959    2.4350   -2.0650 H   0  0  0  0  0  0  0  0  0  0  0  0
   -0.7029    1.0021   -2.4134 H   0  0  0  0  0  0  0  0  0  0  0  0
   -2.4501    0.8533   -2.3191 H   0  0  0  0  0  0  0  0  0  0  0  0
   -0.9168   -1.5713    1.4190 H   0  0  0  0  0  0  0  0  0  0  0  0
   -1.2672   -2.8844   -2.1376 H   0  0  0  0  0  0  0  0  0  0  0  0
   -0.5363   -1.2968   -2.4884 H   0  0  0  0  0  0  0  0  0  0  0  0
    0.4574   -2.7474   -2.4250 H   0  0  0  0  0  0  0  0  0  0  0  0
  1  2  1  0  0  0  0
  1  3  1  0  0  0  0
  1  5  1  0  0  0  0
  1  6  1  0  0  0  0
  2  3  1  0  0  0  0
  2  4  1  0  0  0  0
  2 16  1  0  0  0  0
  3  7  1  0  0  0  0
  3 17  1  0  0  0  0
  4  8  1  0  0  0  0
  4 18  1  0  0  0  0
  4 19  1  0  0  0  0
  5 23  1  0  0  0  0
  5 24  1  0  0  0  0
  5 25  1  0  0  0  0
  6 20  1  0  0  0  0
  6 21  1  0  0  0  0
  6 22  1  0  0  0  0
  7  9  2  0  0  0  0
  7 26  1  0  0  0  0
  8 10  1  0  0  0  0
  8 27  1  0  0  0  0
  8 28  1  0  0  0  0
  9 11  1  0  0  0  0
  9 13  1  0  0  0  0
 10 14  2  0  0  0  0
 10 15  1  0  0  0  0
 11 12  1  0  0  0  0
 11 29  1  0  0  0  0
 11 30  1  0  0  0  0
 12 14  1  0  0  0  0
 12 31  1  0  0  0  0
 12 32  1  0  0  0  0
 13 33  1  0  0  0  0
 13 34  1  0  0  0  0
 13 35  1  0  0  0  0
 14 36  1  0  0  0  0
 15 37  1  0  0  0  0
 15 38  1  0  0  0  0
 15 39  1  0  0  0  0
M  END
> <PUBCHEM_COMPOUND_CID>
5315347

> <PUBCHEM_COMPOUND_CANONICALIZED>
1

> <PUBCHEM_CACTVS_COMPLEXITY>
304

> <PUBCHEM_CACTVS_HBOND_ACCEPTOR>
0

> <PUBCHEM_CACTVS_HBOND_DONOR>
0

> <PUBCHEM_CACTVS_ROTATABLE_BOND>
0

> <PUBCHEM_CACTVS_SUBSKEYS>
AAADceBwAAAAAAAAAAAAAAAAGAAAAAAAAAAAAAAAAAAAAACAAAAAGAAAAAAADwCAAAACAAAAAACAAiBCAAAAAAAgAAAACAAAAAgAAAIAAQAAAAAAgAAIAAMAgMAPgAAAAAAAAAAAAAAAAAAAAAAAAAAAAA==

> <PUBCHEM_IUPAC_OPENEYE_NAME>
(2~{E},6~{E})-3,7,11,11-tetramethylbicyclo[8.1.0]undeca-2,6-diene

> <PUBCHEM_IUPAC_CAS_NAME>
(2~{E},6~{E})-3,7,11,11-tetramethylbicyclo[8.1.0]undeca-2,6-diene

> <PUBCHEM_IUPAC_NAME>
(2~{E},6~{E})-3,7,11,11-tetramethylbicyclo[8.1.0]undeca-2,6-diene

> <PUBCHEM_IUPAC_SYSTEMATIC_NAME>
(2~{E},6~{E})-3,7,11,11-tetramethylbicyclo[8.1.0]undeca-2,6-diene

> <PUBCHEM_IUPAC_TRADITIONAL_NAME>
(2~{E},6~{E})-3,7,11,11-tetramethylbicyclo[8.1.0]undeca-2,6-diene

> <PUBCHEM_IUPAC_INCHI>
InChI=1S/C15H24/c1-11-6-5-7-12(2)10-14-13(9-8-11)15(14,3)4/h6,10,13-14H,5,7-9H2,1-4H3/b11-6+,12-10+

> <PUBCHEM_IUPAC_INCHIKEY>
VPDZRSSKICPUEY-BFPRWLMKSA-N

> <PUBCHEM_XLOGP3_AA>
4.1

> <PUBCHEM_EXACT_MASS>
204.188

> <PUBCHEM_MOLECULAR_FORMULA>
C15H24

> <PUBCHEM_MOLECULAR_WEIGHT>
204.357

> <PUBCHEM_OPENEYE_CAN_SMILES>
CC1=CCCC(=CC2C(C2(C)C)CC1)C

> <PUBCHEM_OPENEYE_ISO_SMILES>
C/C/1=C\CC/C(=C/C2C(C2(C)C)CC1)/C

> <PUBCHEM_CACTVS_TPSA>
0

> <PUBCHEM_MONOISOTOPIC_WEIGHT>
204.188

> <PUBCHEM_TOTAL_CHARGE>
0

> <PUBCHEM_HEAVY_ATOM_COUNT>
15

> <PUBCHEM_ATOM_DEF_STEREO_COUNT>
0

> <PUBCHEM_ATOM_UDEF_STEREO_COUNT>
2

> <PUBCHEM_BOND_DEF_STEREO_COUNT>
2

> <PUBCHEM_BOND_UDEF_STEREO_COUNT>
0

> <PUBCHEM_ISOTOPIC_ATOM_COUNT>
0

> <PUBCHEM_COMPONENT_COUNT>
1

> <PUBCHEM_CACTVS_TAUTO_COUNT>
-1

> <PUBCHEM_COORDINATE_TYPE>
1 __ 5 __ 255

> <PUBCHEM_BONDANNOTATIONS>
2  1  3 __ 3  1  3

$$$$
530816
 OpenBabel02201912233D

 39 41  0  0  1  0  0  0  0  0999 V2000
    0.9715    2.7888   -1.7934 C   0  0  3  0  0  0  0  0  0  0  0  0
    0.1523    3.1384   -0.4760 C   0  0  3  0  0  0  0  0  0  0  0  0
    1.2024    1.3489   -1.1520 C   0  0  3  0  0  0  0  0  0  0  0  0
    0.6488    1.8362    0.2006 C   0  0  3  0  0  0  0  0  0  0  0  0
    0.6566    4.4742    0.1228 C   0  0  3  0  0  0  0  0  0  0  0  0
    1.9688    3.9810   -1.8290 C   0  0  0  0  0  0  0  0  0  0  0  0
    1.2460    5.1274   -1.1140 C   0  0  0  0  0  0  0  0  0  0  0  0
    0.3038    0.1214   -1.4579 C   0  0  0  0  0  0  0  0  0  0  0  0
   -0.4005    0.9010    0.6607 C   0  0  0  0  0  0  0  0  0  0  0  0
    0.5179    2.6039   -3.2418 C   0  0  0  0  0  0  0  0  0  0  0  0
    1.6411    4.3984    1.3389 C   0  0  0  0  0  0  0  0  0  0  0  0
   -0.5437   -0.0810   -0.2358 C   0  0  0  0  0  0  0  0  0  0  0  0
   -1.1092    1.0739    1.9501 C   0  0  0  0  0  0  0  0  0  0  0  0
    3.0784    3.9184    1.0711 C   0  0  0  0  0  0  0  0  0  0  0  0
    1.7738    5.7765    2.0083 C   0  0  0  0  0  0  0  0  0  0  0  0
   -0.9304    3.1731   -0.6815 H   0  0  0  0  0  0  0  0  0  0  0  0
    2.2620    1.0635   -1.1111 H   0  0  0  0  0  0  0  0  0  0  0  0
    1.4075    1.9038    0.9550 H   0  0  0  0  0  0  0  0  0  0  0  0
   -0.2244    5.0393    0.4613 H   0  0  0  0  0  0  0  0  0  0  0  0
    2.2034    4.3157   -2.8472 H   0  0  0  0  0  0  0  0  0  0  0  0
    2.9245    3.7173   -1.3851 H   0  0  0  0  0  0  0  0  0  0  0  0
    1.8847    5.9873   -0.9027 H   0  0  0  0  0  0  0  0  0  0  0  0
    0.4187    5.4858   -1.7455 H   0  0  0  0  0  0  0  0  0  0  0  0
    0.9128   -0.7646   -1.6656 H   0  0  0  0  0  0  0  0  0  0  0  0
   -0.3737    0.2752   -2.2976 H   0  0  0  0  0  0  0  0  0  0  0  0
    1.3550    2.1692   -3.8147 H   0  0  0  0  0  0  0  0  0  0  0  0
   -0.3407    1.9501   -3.3695 H   0  0  0  0  0  0  0  0  0  0  0  0
    0.2700    3.5539   -3.7266 H   0  0  0  0  0  0  0  0  0  0  0  0
    1.1995    3.7335    2.0924 H   0  0  0  0  0  0  0  0  0  0  0  0
   -1.2104   -0.9257   -0.1191 H   0  0  0  0  0  0  0  0  0  0  0  0
   -0.7888    0.3183    2.6752 H   0  0  0  0  0  0  0  0  0  0  0  0
   -0.8982    2.0599    2.3825 H   0  0  0  0  0  0  0  0  0  0  0  0
   -2.1924    1.0013    1.8206 H   0  0  0  0  0  0  0  0  0  0  0  0
    3.6314    4.6302    0.4488 H   0  0  0  0  0  0  0  0  0  0  0  0
    3.6330    3.8287    2.0127 H   0  0  0  0  0  0  0  0  0  0  0  0
    3.1328    2.9374    0.5961 H   0  0  0  0  0  0  0  0  0  0  0  0
    0.8001    6.1545    2.3278 H   0  0  0  0  0  0  0  0  0  0  0  0
    2.4127    5.7091    2.8965 H   0  0  0  0  0  0  0  0  0  0  0  0
    2.2256    6.5112    1.3333 H   0  0  0  0  0  0  0  0  0  0  0  0
  1  2  1  0  0  0  0
  1  3  1  0  0  0  0
  1  6  1  0  0  0  0
  1 10  1  0  0  0  0
  2  4  1  0  0  0  0
  2  5  1  0  0  0  0
  2 16  1  0  0  0  0
  3  4  1  0  0  0  0
  3  8  1  0  0  0  0
  3 17  1  0  0  0  0
  4  9  1  0  0  0  0
  4 18  1  0  0  0  0
  5  7  1  0  0  0  0
  5 11  1  0  0  0  0
  5 19  1  0  0  0  0
  6  7  1  0  0  0  0
  6 20  1  0  0  0  0
  6 21  1  0  0  0  0
  7 22  1  0  0  0  0
  7 23  1  0  0  0  0
  8 12  1  0  0  0  0
  8 24  1  0  0  0  0
  8 25  1  0  0  0  0
  9 12  2  0  0  0  0
  9 13  1  0  0  0  0
 10 26  1  0  0  0  0
 10 27  1  0  0  0  0
 10 28  1  0  0  0  0
 11 14  1  0  0  0  0
 11 15  1  0  0  0  0
 11 29  1  0  0  0  0
 12 30  1  0  0  0  0
 13 31  1  0  0  0  0
 13 32  1  0  0  0  0
 13 33  1  0  0  0  0
 14 34  1  0  0  0  0
 14 35  1  0  0  0  0
 14 36  1  0  0  0  0
 15 37  1  0  0  0  0
 15 38  1  0  0  0  0
 15 39  1  0  0  0  0
M  END
> <PUBCHEM_COMPOUND_CID>
530816

> <PUBCHEM_COMPOUND_CANONICALIZED>
1

> <PUBCHEM_CACTVS_COMPLEXITY>
312

> <PUBCHEM_CACTVS_HBOND_ACCEPTOR>
0

> <PUBCHEM_CACTVS_HBOND_DONOR>
0

> <PUBCHEM_CACTVS_ROTATABLE_BOND>
1

> <PUBCHEM_CACTVS_SUBSKEYS>
AAADceBwAAAAAAAAAAAAAAAAAABgAYIAAAAAAAAABggAAAAAAAAAGAAAAAAADwCAAAACAAAAAACAAiBCAAAAAAAgAAAACAAAAAgAAAIAAQAAAAAAgAAIAAMAgMAPgAAAAAAAAAAAAAAAAAAAAQAACAAAAA==

> <PUBCHEM_IUPAC_OPENEYE_NAME>
10-isopropyl-3,7-dimethyl-tricyclo[5.3.0.0^{2,6}]dec-3-ene

> <PUBCHEM_IUPAC_CAS_NAME>
3,7-dimethyl-10-propan-2-yltricyclo[5.3.0.0^{2,6}]dec-3-ene

> <PUBCHEM_IUPAC_NAME>
3,7-dimethyl-10-propan-2-yltricyclo[5.3.0.0^{2,6}]dec-3-ene

> <PUBCHEM_IUPAC_SYSTEMATIC_NAME>
3,7-dimethyl-10-propan-2-yl-tricyclo[5.3.0.0^{2,6}]dec-3-ene

> <PUBCHEM_IUPAC_TRADITIONAL_NAME>
10-isopropyl-3,7-dimethyl-tricyclo[5.3.0.0^{2,6}]dec-3-ene

> <PUBCHEM_IUPAC_INCHI>
InChI=1S/C15H24/c1-9(2)11-7-8-15(4)12-6-5-10(3)13(12)14(11)15/h5,9,11-14H,6-8H2,1-4H3

> <PUBCHEM_IUPAC_INCHIKEY>
FAIMMSRDTUMTQR-UHFFFAOYSA-N

> <PUBCHEM_XLOGP3_AA>
4.5

> <PUBCHEM_EXACT_MASS>
204.188

> <PUBCHEM_MOLECULAR_FORMULA>
C15H24

> <PUBCHEM_MOLECULAR_WEIGHT>
204.357

> <PUBCHEM_OPENEYE_CAN_SMILES>
CC1=CCC2C1C3C2(CCC3C(C)C)C

> <PUBCHEM_OPENEYE_ISO_SMILES>
CC1=CCC2C1C3C2(CCC3C(C)C)C

> <PUBCHEM_CACTVS_TPSA>
0

> <PUBCHEM_MONOISOTOPIC_WEIGHT>
204.188

> <PUBCHEM_TOTAL_CHARGE>
0

> <PUBCHEM_HEAVY_ATOM_COUNT>
15

> <PUBCHEM_ATOM_DEF_STEREO_COUNT>
0

> <PUBCHEM_ATOM_UDEF_STEREO_COUNT>
5

> <PUBCHEM_BOND_DEF_STEREO_COUNT>
0

> <PUBCHEM_BOND_UDEF_STEREO_COUNT>
0

> <PUBCHEM_ISOTOPIC_ATOM_COUNT>
0

> <PUBCHEM_COMPONENT_COUNT>
1

> <PUBCHEM_CACTVS_TAUTO_COUNT>
-1

> <PUBCHEM_COORDINATE_TYPE>
1 __ 5 __ 255

> <PUBCHEM_BONDANNOTATIONS>
1  10  3 __ 2  5  3 __ 3  8  3 __ 4  9  3 __ 5  11  3

$$$$
442393
 OpenBabel02201912233D

 39 40  0  0  1  0  0  0  0  0999 V2000
    0.0801    0.4916   -0.3053 C   0  0  1  0  0  0  0  0  0  0  0  0
   -0.0243   -0.9171    0.3534 C   0  0  1  0  0  0  0  0  0  0  0  0
   -1.1619    1.3315    0.0721 C   0  0  0  0  0  0  0  0  0  0  0  0
   -1.3360   -1.6300   -0.0368 C   0  0  0  0  0  0  0  0  0  0  0  0
    1.3341    1.2108    0.2570 C   0  0  0  0  0  0  0  0  0  0  0  0
   -2.5917   -0.7871    0.2577 C   0  0  1  0  0  0  0  0  0  0  0  0
   -2.4925    0.6576   -0.2543 C   0  0  0  0  0  0  0  0  0  0  0  0
    1.2582   -1.7080    0.0883 C   0  0  0  0  0  0  0  0  0  0  0  0
    2.6293    0.4181    0.0608 C   0  0  0  0  0  0  0  0  0  0  0  0
    0.1870    0.3992   -1.8483 C   0  0  0  0  0  0  0  0  0  0  0  0
    2.5207   -1.0207    0.5641 C   0  0  0  0  0  0  0  0  0  0  0  0
   -3.8455   -1.4599   -0.2915 C   0  0  0  0  0  0  0  0  0  0  0  0
    1.3232   -2.9028   -0.5239 C   0  0  0  0  0  0  0  0  0  0  0  0
   -3.9686   -1.6568   -1.7813 C   0  0  0  0  0  0  0  0  0  0  0  0
   -4.8443   -1.8663    0.5131 C   0  0  0  0  0  0  0  0  0  0  0  0
   -0.0708   -0.7764    1.4453 H   0  0  0  0  0  0  0  0  0  0  0  0
   -1.1255    2.3004   -0.4444 H   0  0  0  0  0  0  0  0  0  0  0  0
   -1.1421    1.5599    1.1455 H   0  0  0  0  0  0  0  0  0  0  0  0
   -1.3023   -1.9103   -1.0933 H   0  0  0  0  0  0  0  0  0  0  0  0
   -1.4129   -2.5725    0.5254 H   0  0  0  0  0  0  0  0  0  0  0  0
    1.2031    1.3861    1.3347 H   0  0  0  0  0  0  0  0  0  0  0  0
    1.4443    2.2023   -0.2021 H   0  0  0  0  0  0  0  0  0  0  0  0
   -2.6764   -0.7271    1.3506 H   0  0  0  0  0  0  0  0  0  0  0  0
   -2.6577    0.7074   -1.3349 H   0  0  0  0  0  0  0  0  0  0  0  0
   -3.2998    1.2529    0.1959 H   0  0  0  0  0  0  0  0  0  0  0  0
    3.4431    0.9252    0.5915 H   0  0  0  0  0  0  0  0  0  0  0  0
    2.9086    0.4233   -0.9993 H   0  0  0  0  0  0  0  0  0  0  0  0
    0.2804    1.3961   -2.2922 H   0  0  0  0  0  0  0  0  0  0  0  0
    1.0561   -0.1814   -2.1741 H   0  0  0  0  0  0  0  0  0  0  0  0
   -0.6907   -0.0752   -2.2968 H   0  0  0  0  0  0  0  0  0  0  0  0
    3.4168   -1.5689    0.2451 H   0  0  0  0  0  0  0  0  0  0  0  0
    2.5262   -1.0247    1.6626 H   0  0  0  0  0  0  0  0  0  0  0  0
    0.4441   -3.4260   -0.8844 H   0  0  0  0  0  0  0  0  0  0  0  0
    2.2742   -3.4011   -0.6909 H   0  0  0  0  0  0  0  0  0  0  0  0
   -4.1590   -2.7081   -2.0191 H   0  0  0  0  0  0  0  0  0  0  0  0
   -4.7865   -1.0471   -2.1803 H   0  0  0  0  0  0  0  0  0  0  0  0
   -3.0596   -1.3669   -2.3175 H   0  0  0  0  0  0  0  0  0  0  0  0
   -4.8023   -1.7356    1.5885 H   0  0  0  0  0  0  0  0  0  0  0  0
   -5.7368   -2.3333    0.1076 H   0  0  0  0  0  0  0  0  0  0  0  0
  1  2  1  1  0  0  0
  1  3  1  0  0  0  0
  1  5  1  0  0  0  0
  1 10  1  0  0  0  0
  2  4  1  0  0  0  0
  2  8  1  0  0  0  0
  2 16  1  1  0  0  0
  3  7  1  0  0  0  0
  3 17  1  0  0  0  0
  3 18  1  0  0  0  0
  4  6  1  0  0  0  0
  4 19  1  0  0  0  0
  4 20  1  0  0  0  0
  5  9  1  0  0  0  0
  5 21  1  0  0  0  0
  5 22  1  0  0  0  0
  6  7  1  0  0  0  0
  6 12  1  0  0  0  0
  6 23  1  1  0  0  0
  7 24  1  0  0  0  0
  7 25  1  0  0  0  0
  8 11  1  0  0  0  0
  8 13  2  0  0  0  0
  9 11  1  0  0  0  0
  9 26  1  0  0  0  0
  9 27  1  0  0  0  0
 10 28  1  0  0  0  0
 10 29  1  0  0  0  0
 10 30  1  0  0  0  0
 11 31  1  0  0  0  0
 11 32  1  0  0  0  0
 12 14  1  0  0  0  0
 12 15  2  0  0  0  0
 13 33  1  0  0  0  0
 13 34  1  0  0  0  0
 14 35  1  0  0  0  0
 14 36  1  0  0  0  0
 14 37  1  0  0  0  0
 15 38  1  0  0  0  0
 15 39  1  0  0  0  0
M  END
> <PUBCHEM_COMPOUND_CID>
442393

> <PUBCHEM_COMPOUND_CANONICALIZED>
1

> <PUBCHEM_CACTVS_COMPLEXITY>
286

> <PUBCHEM_CACTVS_HBOND_ACCEPTOR>
0

> <PUBCHEM_CACTVS_HBOND_DONOR>
0

> <PUBCHEM_CACTVS_ROTATABLE_BOND>
1

> <PUBCHEM_CACTVS_SUBSKEYS>
AAADceBwAAAAAAAAAAAAAAAAAAAAAAAAAAAwYAAAAAAAAADAAAAAGAAAAAAADwCAAAACAAAAAACAAgBCAAAAAAAgAAAAAAAAAAgAAAIAAQAAAAAAgAAAAAEAgMAPgAAAAAAAAACAAAQAACAAAAAAAAAAAA==

> <PUBCHEM_IUPAC_OPENEYE_NAME>
(4~{a}~{R},7~{R},8~{a}~{S})-7-isopropenyl-4~{a}-methyl-1-methylene-decalin

> <PUBCHEM_IUPAC_CAS_NAME>
(3~{R},4~{a}~{S},8~{a}~{R})-8~{a}-methyl-5-methylene-3-(1-methylethenyl)-1,2,3,4,4~{a},6,7,8-octahydronaphthalene

> <PUBCHEM_IUPAC_NAME>
(3~{R},4~{a}~{S},8~{a}~{R})-8~{a}-methyl-5-methylidene-3-prop-1-en-2-yl-1,2,3,4,4~{a},6,7,8-octahydronaphthalene

> <PUBCHEM_IUPAC_SYSTEMATIC_NAME>
(3~{R},4~{a}~{S},8~{a}~{R})-8~{a}-methyl-5-methylidene-3-prop-1-en-2-yl-1,2,3,4,4~{a},6,7,8-octahydronaphthalene

> <PUBCHEM_IUPAC_TRADITIONAL_NAME>
(4~{a}~{R},7~{R},8~{a}~{S})-7-isopropenyl-4~{a}-methyl-1-methylene-decalin

> <PUBCHEM_IUPAC_INCHI>
InChI=1S/C15H24/c1-11(2)13-7-9-15(4)8-5-6-12(3)14(15)10-13/h13-14H,1,3,5-10H2,2,4H3/t13-,14+,15-/m1/s1

> <PUBCHEM_IUPAC_INCHIKEY>
YOVSPTNQHMDJAG-QLFBSQMISA-N

> <PUBCHEM_XLOGP3_AA>
5.4

> <PUBCHEM_EXACT_MASS>
204.188

> <PUBCHEM_MOLECULAR_FORMULA>
C15H24

> <PUBCHEM_MOLECULAR_WEIGHT>
204.357

> <PUBCHEM_OPENEYE_CAN_SMILES>
CC(=C)C1CCC2(CCCC(=C)C2C1)C

> <PUBCHEM_OPENEYE_ISO_SMILES>
CC(=C)[C@@H]1CC[C@]2(CCCC(=C)[C@@H]2C1)C

> <PUBCHEM_CACTVS_TPSA>
0

> <PUBCHEM_MONOISOTOPIC_WEIGHT>
204.188

> <PUBCHEM_TOTAL_CHARGE>
0

> <PUBCHEM_HEAVY_ATOM_COUNT>
15

> <PUBCHEM_ATOM_DEF_STEREO_COUNT>
3

> <PUBCHEM_ATOM_UDEF_STEREO_COUNT>
0

> <PUBCHEM_BOND_DEF_STEREO_COUNT>
0

> <PUBCHEM_BOND_UDEF_STEREO_COUNT>
0

> <PUBCHEM_ISOTOPIC_ATOM_COUNT>
0

> <PUBCHEM_COMPONENT_COUNT>
1

> <PUBCHEM_CACTVS_TAUTO_COUNT>
1

> <PUBCHEM_COORDINATE_TYPE>
1 __ 5 __ 255

> <PUBCHEM_BONDANNOTATIONS>
1  10  5 __ 2  16  6 __ 6  12  5

$$$$
519764
 OpenBabel02201912233D

 39 39  0  0  1  0  0  0  0  0999 V2000
   -0.9286    0.9232    0.1191 C   0  0  3  0  0  0  0  0  0  0  0  0
   -1.4735    1.4740    1.4881 C   0  0  3  0  0  0  0  0  0  0  0  0
    0.5661    1.2494   -0.1152 C   0  0  0  0  0  0  0  0  0  0  0  0
   -1.4104    3.0243    1.5041 C   0  0  0  0  0  0  0  0  0  0  0  0
    1.5811    0.0999   -0.0850 C   0  0  0  0  0  0  0  0  0  0  0  0
   -1.2512   -0.5298   -0.1109 C   0  0  0  0  0  0  0  0  0  0  0  0
   -2.9128    0.9954    1.7546 C   0  0  0  0  0  0  0  0  0  0  0  0
   -1.8468    3.6913    2.8159 C   0  0  0  0  0  0  0  0  0  0  0  0
    1.0601   -1.3073   -0.1138 C   0  0  0  0  0  0  0  0  0  0  0  0
   -0.3611   -1.5174   -0.2053 C   0  0  0  0  0  0  0  0  0  0  0  0
   -1.6707    5.1825    2.6921 C   0  0  0  0  0  0  0  0  0  0  0  0
    1.9048   -2.3501   -0.0662 C   0  0  0  0  0  0  0  0  0  0  0  0
   -2.6336    6.1162    2.8153 C   0  0  0  0  0  0  0  0  0  0  0  0
   -2.3444    7.5651    2.5368 C   0  0  0  0  0  0  0  0  0  0  0  0
   -4.0494    5.7948    3.2031 C   0  0  0  0  0  0  0  0  0  0  0  0
   -1.4802    1.4658   -0.6636 H   0  0  0  0  0  0  0  0  0  0  0  0
   -0.8374    1.0920    2.2978 H   0  0  0  0  0  0  0  0  0  0  0  0
    0.9289    2.0020    0.5919 H   0  0  0  0  0  0  0  0  0  0  0  0
    0.6461    1.7393   -1.0962 H   0  0  0  0  0  0  0  0  0  0  0  0
   -0.3855    3.3529    1.3040 H   0  0  0  0  0  0  0  0  0  0  0  0
   -2.0196    3.4164    0.6786 H   0  0  0  0  0  0  0  0  0  0  0  0
    2.2545    0.2351   -0.9442 H   0  0  0  0  0  0  0  0  0  0  0  0
    2.2090    0.2212    0.8071 H   0  0  0  0  0  0  0  0  0  0  0  0
   -2.3049   -0.7891   -0.2158 H   0  0  0  0  0  0  0  0  0  0  0  0
   -2.9395   -0.0836    1.9387 H   0  0  0  0  0  0  0  0  0  0  0  0
   -3.3518    1.4567    2.6417 H   0  0  0  0  0  0  0  0  0  0  0  0
   -3.5652    1.2161    0.9023 H   0  0  0  0  0  0  0  0  0  0  0  0
   -2.8875    3.4484    3.0419 H   0  0  0  0  0  0  0  0  0  0  0  0
   -1.2374    3.3232    3.6487 H   0  0  0  0  0  0  0  0  0  0  0  0
   -0.7175   -2.5354   -0.3517 H   0  0  0  0  0  0  0  0  0  0  0  0
   -0.6611    5.5043    2.4366 H   0  0  0  0  0  0  0  0  0  0  0  0
    1.5604   -3.3815   -0.0800 H   0  0  0  0  0  0  0  0  0  0  0  0
    2.9809   -2.1982    0.0048 H   0  0  0  0  0  0  0  0  0  0  0  0
   -4.5284    5.1678    2.4444 H   0  0  0  0  0  0  0  0  0  0  0  0
   -4.0779    5.2793    4.1689 H   0  0  0  0  0  0  0  0  0  0  0  0
   -4.6495    6.7051    3.3065 H   0  0  0  0  0  0  0  0  0  0  0  0
   -3.0317    7.9426    1.7718 H   0  0  0  0  0  0  0  0  0  0  0  0
   -2.4667    8.1630    3.4446 H   0  0  0  0  0  0  0  0  0  0  0  0
   -1.3265    7.7189    2.1627 H   0  0  0  0  0  0  0  0  0  0  0  0
  1  2  1  0  0  0  0
  1  3  1  0  0  0  0
  1  6  1  0  0  0  0
  1 16  1  0  0  0  0
  2  4  1  0  0  0  0
  2  7  1  0  0  0  0
  2 17  1  0  0  0  0
  3  5  1  0  0  0  0
  3 18  1  0  0  0  0
  3 19  1  0  0  0  0
  4  8  1  0  0  0  0
  4 20  1  0  0  0  0
  4 21  1  0  0  0  0
  5  9  1  0  0  0  0
  5 22  1  0  0  0  0
  5 23  1  0  0  0  0
  6 10  2  0  0  0  0
  6 24  1  0  0  0  0
  7 25  1  0  0  0  0
  7 26  1  0  0  0  0
  7 27  1  0  0  0  0
  8 11  1  0  0  0  0
  8 28  1  0  0  0  0
  8 29  1  0  0  0  0
  9 10  1  0  0  0  0
  9 12  2  0  0  0  0
 10 30  1  0  0  0  0
 11 13  2  0  0  0  0
 11 31  1  0  0  0  0
 12 32  1  0  0  0  0
 12 33  1  0  0  0  0
 13 14  1  0  0  0  0
 13 15  1  0  0  0  0
 14 37  1  0  0  0  0
 14 38  1  0  0  0  0
 14 39  1  0  0  0  0
 15 34  1  0  0  0  0
 15 35  1  0  0  0  0
 15 36  1  0  0  0  0
M  END
> <PUBCHEM_COMPOUND_CID>
519764

> <PUBCHEM_COMPOUND_CANONICALIZED>
1

> <PUBCHEM_CACTVS_COMPLEXITY>
264

> <PUBCHEM_CACTVS_HBOND_ACCEPTOR>
0

> <PUBCHEM_CACTVS_HBOND_DONOR>
0

> <PUBCHEM_CACTVS_ROTATABLE_BOND>
4

> <PUBCHEM_CACTVS_SUBSKEYS>
AAADceBwAAAAAAAAAAAAAAAAAAAAAAAAAAAgAAAAAAAAAAAAAAAAGAAAAAAADQCAAAACAAAAAACAAiBCAAAAAAAgAAAICAAAAAgIAAIAAQAAAAAAgAAIgAMAgMAOgAAAAAAAAAAAAAAAAAAAAAAAAAAAAA==

> <PUBCHEM_IUPAC_OPENEYE_NAME>
3-(1,5-dimethylhex-4-enyl)-6-methylene-cyclohexene

> <PUBCHEM_IUPAC_CAS_NAME>
3-methylene-6-(6-methylhept-5-en-2-yl)cyclohexene

> <PUBCHEM_IUPAC_NAME>
3-(6-methylhept-5-en-2-yl)-6-methylidenecyclohexene

> <PUBCHEM_IUPAC_SYSTEMATIC_NAME>
3-(6-methylhept-5-en-2-yl)-6-methylidene-cyclohexene

> <PUBCHEM_IUPAC_TRADITIONAL_NAME>
3-(1,5-dimethylhex-4-enyl)-6-methylene-cyclohexene

> <PUBCHEM_IUPAC_INCHI>
InChI=1S/C15H24/c1-12(2)6-5-7-14(4)15-10-8-13(3)9-11-15/h6,8,10,14-15H,3,5,7,9,11H2,1-2,4H3

> <PUBCHEM_IUPAC_INCHIKEY>
PHWISBHSBNDZDX-UHFFFAOYSA-N

> <PUBCHEM_XLOGP3_AA>
5.4

> <PUBCHEM_EXACT_MASS>
204.188

> <PUBCHEM_MOLECULAR_FORMULA>
C15H24

> <PUBCHEM_MOLECULAR_WEIGHT>
204.357

> <PUBCHEM_OPENEYE_CAN_SMILES>
CC(CCC=C(C)C)C1CCC(=C)C=C1

> <PUBCHEM_OPENEYE_ISO_SMILES>
CC(CCC=C(C)C)C1CCC(=C)C=C1

> <PUBCHEM_CACTVS_TPSA>
0

> <PUBCHEM_MONOISOTOPIC_WEIGHT>
204.188

> <PUBCHEM_TOTAL_CHARGE>
0

> <PUBCHEM_HEAVY_ATOM_COUNT>
15

> <PUBCHEM_ATOM_DEF_STEREO_COUNT>
0

> <PUBCHEM_ATOM_UDEF_STEREO_COUNT>
2

> <PUBCHEM_BOND_DEF_STEREO_COUNT>
0

> <PUBCHEM_BOND_UDEF_STEREO_COUNT>
0

> <PUBCHEM_ISOTOPIC_ATOM_COUNT>
0

> <PUBCHEM_COMPONENT_COUNT>
1

> <PUBCHEM_CACTVS_TAUTO_COUNT>
-1

> <PUBCHEM_COORDINATE_TYPE>
1 __ 5 __ 255

> <PUBCHEM_BONDANNOTATIONS>
1  6  3 __ 2  7  3

$$$$
25244198
 OpenBabel02201912233D

 39 41  0  0  1  0  0  0  0  0999 V2000
    0.4091   -0.9863   -0.7208 C   0  0  1  0  0  0  0  0  0  0  0  0
    0.2311    0.6769    0.5993 C   0  0  2  0  0  0  0  0  0  0  0  0
   -0.1483   -0.8473    0.7554 C   0  0  1  0  0  0  0  0  0  0  0  0
   -0.2687    0.4532   -0.9067 C   0  0  3  0  0  0  0  0  0  0  0  0
    1.7329    1.0530    0.7505 C   0  0  3  0  0  0  0  0  0  0  0  0
    1.9620   -0.8986   -0.8111 C   0  0  0  0  0  0  0  0  0  0  0  0
   -1.6666   -1.0560    0.9703 C   0  0  0  0  0  0  0  0  0  0  0  0
    2.4618    0.5017   -0.4810 C   0  0  0  0  0  0  0  0  0  0  0  0
   -1.7648    0.4955   -0.9888 C   0  0  0  0  0  0  0  0  0  0  0  0
   -0.0273   -2.2436   -1.4665 C   0  0  0  0  0  0  0  0  0  0  0  0
   -2.5012   -0.5589   -0.2208 C   0  0  0  0  0  0  0  0  0  0  0  0
    2.3579    0.5461    2.0833 C   0  0  0  0  0  0  0  0  0  0  0  0
   -2.3631    1.5117   -1.6264 C   0  0  0  0  0  0  0  0  0  0  0  0
    3.8375    0.9438    2.2110 C   0  0  0  0  0  0  0  0  0  0  0  0
    1.6080    1.0612    3.3158 C   0  0  0  0  0  0  0  0  0  0  0  0
   -0.3885    1.3621    1.1951 H   0  0  0  0  0  0  0  0  0  0  0  0
    0.4040   -1.3987    1.5217 H   0  0  0  0  0  0  0  0  0  0  0  0
    0.1891    1.0862   -1.6737 H   0  0  0  0  0  0  0  0  0  0  0  0
    1.8180    2.1470    0.7261 H   0  0  0  0  0  0  0  0  0  0  0  0
    2.2999   -1.1529   -1.8228 H   0  0  0  0  0  0  0  0  0  0  0  0
    2.4123   -1.6275   -0.1269 H   0  0  0  0  0  0  0  0  0  0  0  0
   -1.8794   -2.1178    1.1397 H   0  0  0  0  0  0  0  0  0  0  0  0
   -1.9783   -0.5254    1.8785 H   0  0  0  0  0  0  0  0  0  0  0  0
    3.5484    0.5150   -0.3897 H   0  0  0  0  0  0  0  0  0  0  0  0
    2.2583    1.1653   -1.3364 H   0  0  0  0  0  0  0  0  0  0  0  0
   -1.0588   -2.5383   -1.2795 H   0  0  0  0  0  0  0  0  0  0  0  0
    0.0963   -2.1159   -2.5461 H   0  0  0  0  0  0  0  0  0  0  0  0
    0.5862   -3.0988   -1.1563 H   0  0  0  0  0  0  0  0  0  0  0  0
   -2.7222   -1.3906   -0.8989 H   0  0  0  0  0  0  0  0  0  0  0  0
   -3.4769   -0.2025    0.1295 H   0  0  0  0  0  0  0  0  0  0  0  0
    2.3229   -0.5484    2.1116 H   0  0  0  0  0  0  0  0  0  0  0  0
   -1.7948    2.2924   -2.1238 H   0  0  0  0  0  0  0  0  0  0  0  0
   -3.4454    1.5960   -1.6607 H   0  0  0  0  0  0  0  0  0  0  0  0
    3.9706    2.0235    2.0848 H   0  0  0  0  0  0  0  0  0  0  0  0
    4.2331    0.6655    3.1936 H   0  0  0  0  0  0  0  0  0  0  0  0
    4.4634    0.4314    1.4743 H   0  0  0  0  0  0  0  0  0  0  0  0
    0.5749    0.7066    3.3339 H   0  0  0  0  0  0  0  0  0  0  0  0
    2.0895    0.6984    4.2331 H   0  0  0  0  0  0  0  0  0  0  0  0
    1.6041    2.1540    3.3474 H   0  0  0  0  0  0  0  0  0  0  0  0
  1  3  1  1  0  0  0
  1  4  1  0  0  0  0
  1  6  1  0  0  0  0
  1 10  1  0  0  0  0
  2  3  1  1  0  0  0
  2  4  1  0  0  0  0
  2  5  1  0  0  0  0
  2 16  1  0  0  0  0
  3  7  1  0  0  0  0
  3 17  1  1  0  0  0
  4  9  1  0  0  0  0
  4 18  1  0  0  0  0
  5  8  1  0  0  0  0
  5 12  1  0  0  0  0
  5 19  1  0  0  0  0
  6  8  1  0  0  0  0
  6 20  1  0  0  0  0
  6 21  1  0  0  0  0
  7 11  1  0  0  0  0
  7 22  1  0  0  0  0
  7 23  1  0  0  0  0
  8 24  1  0  0  0  0
  8 25  1  0  0  0  0
  9 11  1  0  0  0  0
  9 13  2  0  0  0  0
 10 26  1  0  0  0  0
 10 27  1  0  0  0  0
 10 28  1  0  0  0  0
 11 29  1  0  0  0  0
 11 30  1  0  0  0  0
 12 14  1  0  0  0  0
 12 15  1  0  0  0  0
 12 31  1  0  0  0  0
 13 32  1  0  0  0  0
 13 33  1  0  0  0  0
 14 34  1  0  0  0  0
 14 35  1  0  0  0  0
 14 36  1  0  0  0  0
 15 37  1  0  0  0  0
 15 38  1  0  0  0  0
 15 39  1  0  0  0  0
M  END
> <PUBCHEM_COMPOUND_CID>
25244198

> <PUBCHEM_COMPOUND_CANONICALIZED>
1

> <PUBCHEM_CACTVS_COMPLEXITY>
301

> <PUBCHEM_CACTVS_HBOND_ACCEPTOR>
0

> <PUBCHEM_CACTVS_HBOND_DONOR>
0

> <PUBCHEM_CACTVS_ROTATABLE_BOND>
1

> <PUBCHEM_CACTVS_SUBSKEYS>
AAADceBwAAAAAAAAAAAAAAAAAABgAAAAAAAwYMGAAAAAAAAAAAAAGAAAAAAADwCAAAACAAAAAACAAgBCAAAAAAAgAAAAAAAAAAgAAAIAAQAAAAAAgAAAAAEAgMAPgAAAAAAAAACAAAQAACAAAAAAAAAAAA==

> <PUBCHEM_IUPAC_OPENEYE_NAME>
(1~{S},6~{R},7~{R})-8-isopropyl-1-methyl-3-methylene-tricyclo[4.4.0.0^{2,7}]decane

> <PUBCHEM_IUPAC_CAS_NAME>
(1~{S},6~{R},7~{R})-1-methyl-3-methylene-8-propan-2-yltricyclo[4.4.0.0^{2,7}]decane

> <PUBCHEM_IUPAC_NAME>
(1~{S},6~{R},7~{R})-1-methyl-3-methylidene-8-propan-2-yltricyclo[4.4.0.0^{2,7}]decane

> <PUBCHEM_IUPAC_SYSTEMATIC_NAME>
(1~{S},6~{R},7~{R})-1-methyl-3-methylidene-8-propan-2-yl-tricyclo[4.4.0.0^{2,7}]decane

> <PUBCHEM_IUPAC_TRADITIONAL_NAME>
(1~{S},6~{R},7~{R})-8-isopropyl-1-methyl-3-methylene-tricyclo[4.4.0.0^{2,7}]decane

> <PUBCHEM_IUPAC_INCHI>
InChI=1S/C15H24/c1-9(2)11-7-8-15(4)12-6-5-10(3)14(15)13(11)12/h9,11-14H,3,5-8H2,1-2,4H3/t11?,12-,13-,14?,15+/m1/s1

> <PUBCHEM_IUPAC_INCHIKEY>
UPVZPMJSRSWJHQ-KYRRZXGASA-N

> <PUBCHEM_XLOGP3_AA>
4.7

> <PUBCHEM_EXACT_MASS>
204.188

> <PUBCHEM_MOLECULAR_FORMULA>
C15H24

> <PUBCHEM_MOLECULAR_WEIGHT>
204.357

> <PUBCHEM_OPENEYE_CAN_SMILES>
CC(C)C1CCC2(C3C1C2C(=C)CC3)C

> <PUBCHEM_OPENEYE_ISO_SMILES>
CC(C)C1CC[C@]2([C@H]3[C@@H]1C2C(=C)CC3)C

> <PUBCHEM_CACTVS_TPSA>
0

> <PUBCHEM_MONOISOTOPIC_WEIGHT>
204.188

> <PUBCHEM_TOTAL_CHARGE>
0

> <PUBCHEM_HEAVY_ATOM_COUNT>
15

> <PUBCHEM_ATOM_DEF_STEREO_COUNT>
3

> <PUBCHEM_ATOM_UDEF_STEREO_COUNT>
2

> <PUBCHEM_BOND_DEF_STEREO_COUNT>
0

> <PUBCHEM_BOND_UDEF_STEREO_COUNT>
0

> <PUBCHEM_ISOTOPIC_ATOM_COUNT>
0

> <PUBCHEM_COMPONENT_COUNT>
1

> <PUBCHEM_CACTVS_TAUTO_COUNT>
-1

> <PUBCHEM_COORDINATE_TYPE>
1 __ 5 __ 255

> <PUBCHEM_BONDANNOTATIONS>
1  10  5 __ 2  16  5 __ 3  17  5 __ 4  9  3 __ 5  12  3

$$$$
13240187
 OpenBabel02201912233D

 40 42  0  0  1  0  0  0  0  0999 V2000
   -2.3668   -1.9545   -2.0031 O   0  0  0  0  0  0  0  0  0  0  0  0
    0.2357    0.8288   -0.0571 C   0  0  1  0  0  0  0  0  0  0  0  0
    1.0314    1.7903    0.9049 C   0  0  0  0  0  0  0  0  0  0  0  0
   -0.2915    0.0480    1.1906 C   0  0  2  0  0  0  0  0  0  0  0  0
    0.3157    1.1363    2.1073 C   0  0  0  0  0  0  0  0  0  0  0  0
   -1.4002   -0.8865   -1.8963 C   0  0  2  0  0  0  0  0  0  0  0  0
   -0.7692    1.4335   -1.0608 C   0  0  0  0  0  0  0  0  0  0  0  0
   -1.5963   -1.9277   -0.8089 C   0  0  2  0  0  0  0  0  0  0  0  0
   -1.8879    0.4818   -1.5208 C   0  0  0  0  0  0  0  0  0  0  0  0
    0.1895   -1.3741    1.4161 C   0  0  0  0  0  0  0  0  0  0  0  0
   -0.5196   -2.9111   -0.5377 C   0  0  0  0  0  0  0  0  0  0  0  0
    2.5403    1.5140    0.9231 C   0  0  0  0  0  0  0  0  0  0  0  0
    0.7693    3.2926    0.8055 C   0  0  0  0  0  0  0  0  0  0  0  0
    0.6320   -2.2604    0.2618 C   0  0  0  0  0  0  0  0  0  0  0  0
   -0.4087   -0.9899   -3.0172 C   0  0  0  0  0  0  0  0  0  0  0  0
    0.1002   -1.8740    2.6589 C   0  0  0  0  0  0  0  0  0  0  0  0
    0.9514    0.2647   -0.6654 H   0  0  0  0  0  0  0  0  0  0  0  0
   -1.3868    0.0721    1.2717 H   0  0  0  0  0  0  0  0  0  0  0  0
   -0.4540    1.7633    2.5749 H   0  0  0  0  0  0  0  0  0  0  0  0
    0.9784    0.7959    2.9111 H   0  0  0  0  0  0  0  0  0  0  0  0
   -0.2077    1.7752   -1.9406 H   0  0  0  0  0  0  0  0  0  0  0  0
   -1.2560    2.3195   -0.6433 H   0  0  0  0  0  0  0  0  0  0  0  0
   -2.1690   -1.7102    0.0847 H   0  0  0  0  0  0  0  0  0  0  0  0
   -2.6341    0.4146   -0.7187 H   0  0  0  0  0  0  0  0  0  0  0  0
   -2.4112    0.9312   -2.3728 H   0  0  0  0  0  0  0  0  0  0  0  0
   -0.1217   -3.3509   -1.4591 H   0  0  0  0  0  0  0  0  0  0  0  0
   -0.9379   -3.7405    0.0454 H   0  0  0  0  0  0  0  0  0  0  0  0
   -0.2933    3.5334    0.9116 H   0  0  0  0  0  0  0  0  0  0  0  0
    2.7574    0.4483    1.0536 H   0  0  0  0  0  0  0  0  0  0  0  0
    1.1120    3.6852   -0.1577 H   0  0  0  0  0  0  0  0  0  0  0  0
    1.2982    3.8355    1.5969 H   0  0  0  0  0  0  0  0  0  0  0  0
    3.0067    1.8399   -0.0125 H   0  0  0  0  0  0  0  0  0  0  0  0
    3.0245    2.0509    1.7472 H   0  0  0  0  0  0  0  0  0  0  0  0
    1.2724   -3.0688    0.6421 H   0  0  0  0  0  0  0  0  0  0  0  0
    1.2855   -1.7051   -0.4169 H   0  0  0  0  0  0  0  0  0  0  0  0
   -0.6875   -0.3112   -3.8313 H   0  0  0  0  0  0  0  0  0  0  0  0
    0.5990   -0.7287   -2.6840 H   0  0  0  0  0  0  0  0  0  0  0  0
   -0.3728   -2.0000   -3.4387 H   0  0  0  0  0  0  0  0  0  0  0  0
    0.3768   -2.9023    2.8762 H   0  0  0  0  0  0  0  0  0  0  0  0
   -0.2750   -1.2880    3.4934 H   0  0  0  0  0  0  0  0  0  0  0  0
  1  6  1  0  0  0  0
  1  8  1  0  0  0  0
  2  3  1  0  0  0  0
  2  4  1  1  0  0  0
  2  7  1  0  0  0  0
  2 17  1  0  0  0  0
  3  5  1  0  0  0  0
  3 12  1  0  0  0  0
  3 13  1  0  0  0  0
  4  5  1  0  0  0  0
  4 10  1  0  0  0  0
  4 18  1  1  0  0  0
  5 19  1  0  0  0  0
  5 20  1  0  0  0  0
  6  8  1  1  0  0  0
  6  9  1  0  0  0  0
  6 15  1  0  0  0  0
  7  9  1  0  0  0  0
  7 21  1  0  0  0  0
  7 22  1  0  0  0  0
  8 11  1  0  0  0  0
  8 23  1  1  0  0  0
  9 24  1  0  0  0  0
  9 25  1  0  0  0  0
 10 14  1  0  0  0  0
 10 16  2  0  0  0  0
 11 14  1  0  0  0  0
 11 26  1  0  0  0  0
 11 27  1  0  0  0  0
 12 29  1  0  0  0  0
 12 32  1  0  0  0  0
 12 33  1  0  0  0  0
 13 28  1  0  0  0  0
 13 30  1  0  0  0  0
 13 31  1  0  0  0  0
 14 34  1  0  0  0  0
 14 35  1  0  0  0  0
 15 36  1  0  0  0  0
 15 37  1  0  0  0  0
 15 38  1  0  0  0  0
 16 39  1  0  0  0  0
 16 40  1  0  0  0  0
M  END
> <PUBCHEM_COMPOUND_CID>
13240187

> <PUBCHEM_COMPOUND_CANONICALIZED>
1

> <PUBCHEM_CACTVS_COMPLEXITY>
330

> <PUBCHEM_CACTVS_HBOND_ACCEPTOR>
1

> <PUBCHEM_CACTVS_HBOND_DONOR>
0

> <PUBCHEM_CACTVS_ROTATABLE_BOND>
0

> <PUBCHEM_CACTVS_SUBSKEYS>
AAADceBwIAAAAAAAAAAAAAAAEgBgAAAAAAAAAAAAAAAAAGCQAAAAGgAAAAAAD1SggAICAAAABACAAgBCAAAAAAAgAAAAAAAAAAgAAAIAAQACAAAEgAAAAAGAwPAPgAAAAAAAAAAAAAAAAAAAAAAAAAAAAA==

> <PUBCHEM_IUPAC_OPENEYE_NAME>
(1~{R},4~{S},6~{S},10~{S})-4,12,12-trimethyl-9-methylene-5-oxatricyclo[8.2.0.0^{4,6}]dodecane

> <PUBCHEM_IUPAC_CAS_NAME>
(1~{R},4~{S},6~{S},10~{S})-4,12,12-trimethyl-9-methylene-5-oxatricyclo[8.2.0.0^{4,6}]dodecane

> <PUBCHEM_IUPAC_NAME>
(1~{R},4~{S},6~{S},10~{S})-4,12,12-trimethyl-9-methylidene-5-oxatricyclo[8.2.0.0^{4,6}]dodecane

> <PUBCHEM_IUPAC_SYSTEMATIC_NAME>
(1~{R},4~{S},6~{S},10~{S})-4,12,12-trimethyl-9-methylidene-5-oxatricyclo[8.2.0.0^{4,6}]dodecane

> <PUBCHEM_IUPAC_TRADITIONAL_NAME>
(1~{R},4~{S},6~{S},10~{S})-4,12,12-trimethyl-9-methylene-5-oxatricyclo[8.2.0.0^{4,6}]dodecane

> <PUBCHEM_IUPAC_INCHI>
InChI=1S/C15H24O/c1-10-5-6-13-15(4,16-13)8-7-12-11(10)9-14(12,2)3/h11-13H,1,5-9H2,2-4H3/t11-,12-,13+,15+/m1/s1

> <PUBCHEM_IUPAC_INCHIKEY>
NVEQFIOZRFFVFW-CXTNEJHOSA-N

> <PUBCHEM_XLOGP3_AA>
3.6

> <PUBCHEM_EXACT_MASS>
220.183

> <PUBCHEM_MOLECULAR_FORMULA>
C15H24O

> <PUBCHEM_MOLECULAR_WEIGHT>
220.356

> <PUBCHEM_OPENEYE_CAN_SMILES>
CC1(CC2C1CCC3(C(O3)CCC2=C)C)C

> <PUBCHEM_OPENEYE_ISO_SMILES>
C[C@]12CC[C@@H]3[C@H](CC3(C)C)C(=C)CC[C@@H]1O2

> <PUBCHEM_CACTVS_TPSA>
12.5

> <PUBCHEM_MONOISOTOPIC_WEIGHT>
220.183

> <PUBCHEM_TOTAL_CHARGE>
0

> <PUBCHEM_HEAVY_ATOM_COUNT>
16

> <PUBCHEM_ATOM_DEF_STEREO_COUNT>
4

> <PUBCHEM_ATOM_UDEF_STEREO_COUNT>
0

> <PUBCHEM_BOND_DEF_STEREO_COUNT>
0

> <PUBCHEM_BOND_UDEF_STEREO_COUNT>
0

> <PUBCHEM_ISOTOPIC_ATOM_COUNT>
0

> <PUBCHEM_COMPONENT_COUNT>
1

> <PUBCHEM_CACTVS_TAUTO_COUNT>
-1

> <PUBCHEM_COORDINATE_TYPE>
1 __ 5 __ 255

> <PUBCHEM_BONDANNOTATIONS>
2  17  5 __ 4  18  6 __ 6  15  5 __ 8  23  6

$$$$
1742210
 OpenBabel02201912233D

 40 42  0  0  1  0  0  0  0  0999 V2000
    2.3617   -1.3592    0.5214 O   0  0  0  0  0  0  0  0  0  0  0  0
   -0.0900    1.1383   -0.7290 C   0  0  1  0  0  0  0  0  0  0  0  0
   -1.5790    1.7234   -0.9286 C   0  0  0  0  0  0  0  0  0  0  0  0
   -0.4946    1.1979    0.7918 C   0  0  2  0  0  0  0  0  0  0  0  0
   -1.1135    2.5518    0.4311 C   0  0  0  0  0  0  0  0  0  0  0  0
    1.4874   -2.1728   -0.2859 C   0  0  1  0  0  0  0  0  0  0  0  0
    0.6789   -0.0042   -1.3936 C   0  0  0  0  0  0  0  0  0  0  0  0
    1.6673   -2.3735    1.2364 C   0  0  1  0  0  0  0  0  0  0  0  0
    0.3357   -1.4192   -0.9438 C   0  0  0  0  0  0  0  0  0  0  0  0
    0.4463    0.6639    1.7784 C   0  0  0  0  0  0  0  0  0  0  0  0
    0.8958   -1.8854    2.4154 C   0  0  0  0  0  0  0  0  0  0  0  0
   -2.7420    0.7008   -0.8157 C   0  0  0  0  0  0  0  0  0  0  0  0
   -1.8428    2.6027   -2.1469 C   0  0  0  0  0  0  0  0  0  0  0  0
   -0.0338   -0.7019    2.2989 C   0  0  0  0  0  0  0  0  0  0  0  0
    2.2728   -3.0969   -1.1851 C   0  0  0  0  0  0  0  0  0  0  0  0
    1.5720    1.2680    2.1406 C   0  0  0  0  0  0  0  0  0  0  0  0
    0.6174    1.9594   -0.9805 H   0  0  0  0  0  0  0  0  0  0  0  0
   -1.4015    0.6835    1.1121 H   0  0  0  0  0  0  0  0  0  0  0  0
   -0.4147    3.3858    0.2543 H   0  0  0  0  0  0  0  0  0  0  0  0
   -1.9248    2.9205    1.0637 H   0  0  0  0  0  0  0  0  0  0  0  0
    0.5529    0.0831   -2.4791 H   0  0  0  0  0  0  0  0  0  0  0  0
    1.7502    0.1796   -1.2274 H   0  0  0  0  0  0  0  0  0  0  0  0
    2.2391   -3.2455    1.5392 H   0  0  0  0  0  0  0  0  0  0  0  0
   -0.5672   -1.4600   -0.3395 H   0  0  0  0  0  0  0  0  0  0  0  0
    0.0753   -1.9714   -1.8576 H   0  0  0  0  0  0  0  0  0  0  0  0
    0.2638   -2.7308    2.7285 H   0  0  0  0  0  0  0  0  0  0  0  0
    1.5880   -1.7118    3.2450 H   0  0  0  0  0  0  0  0  0  0  0  0
   -2.6435    2.1844   -2.7740 H   0  0  0  0  0  0  0  0  0  0  0  0
   -2.7191    0.0073   -1.6626 H   0  0  0  0  0  0  0  0  0  0  0  0
   -0.9603    2.7002   -2.7818 H   0  0  0  0  0  0  0  0  0  0  0  0
   -2.1771    3.5983   -1.8425 H   0  0  0  0  0  0  0  0  0  0  0  0
   -2.7393    0.0645    0.0743 H   0  0  0  0  0  0  0  0  0  0  0  0
   -3.7087    1.2144   -0.8030 H   0  0  0  0  0  0  0  0  0  0  0  0
   -0.5151   -0.5263    3.2680 H   0  0  0  0  0  0  0  0  0  0  0  0
   -0.8576   -1.0621    1.6657 H   0  0  0  0  0  0  0  0  0  0  0  0
    2.7989   -3.8674   -0.6084 H   0  0  0  0  0  0  0  0  0  0  0  0
    3.0233   -2.5374   -1.7522 H   0  0  0  0  0  0  0  0  0  0  0  0
    1.6200   -3.6177   -1.8914 H   0  0  0  0  0  0  0  0  0  0  0  0
    2.2592    0.8143    2.8373 H   0  0  0  0  0  0  0  0  0  0  0  0
    1.8743    2.2306    1.7108 H   0  0  0  0  0  0  0  0  0  0  0  0
  1  6  1  0  0  0  0
  1  8  1  0  0  0  0
  2  3  1  0  0  0  0
  2  4  1  1  0  0  0
  2  7  1  0  0  0  0
  2 17  1  0  0  0  0
  3  5  1  0  0  0  0
  3 12  1  0  0  0  0
  3 13  1  0  0  0  0
  4  5  1  0  0  0  0
  4 10  1  0  0  0  0
  4 18  1  1  0  0  0
  5 19  1  0  0  0  0
  5 20  1  0  0  0  0
  6  8  1  1  0  0  0
  6  9  1  0  0  0  0
  6 15  1  0  0  0  0
  7  9  1  0  0  0  0
  7 21  1  0  0  0  0
  7 22  1  0  0  0  0
  8 11  1  0  0  0  0
  8 23  1  6  0  0  0
  9 24  1  0  0  0  0
  9 25  1  0  0  0  0
 10 14  1  0  0  0  0
 10 16  2  0  0  0  0
 11 14  1  0  0  0  0
 11 26  1  0  0  0  0
 11 27  1  0  0  0  0
 12 28  1  0  0  0  0
 12 29  1  0  0  0  0
 12 30  1  0  0  0  0
 13 31  1  0  0  0  0
 13 32  1  0  0  0  0
 13 33  1  0  0  0  0
 14 34  1  0  0  0  0
 14 35  1  0  0  0  0
 15 36  1  0  0  0  0
 15 37  1  0  0  0  0
 15 38  1  0  0  0  0
 16 39  1  0  0  0  0
 16 40  1  0  0  0  0
M  END
> <PUBCHEM_COMPOUND_CID>
1742210

> <PUBCHEM_COMPOUND_CANONICALIZED>
1

> <PUBCHEM_CACTVS_COMPLEXITY>
330

> <PUBCHEM_CACTVS_HBOND_ACCEPTOR>
1

> <PUBCHEM_CACTVS_HBOND_DONOR>
0

> <PUBCHEM_CACTVS_ROTATABLE_BOND>
0

> <PUBCHEM_CACTVS_SUBSKEYS>
AAADceBwIAAAAAAAAAAAAAAAEgBgAAAAAAAAAAAAAAAAAGCQAAAAGgAAAAAAD1SggAICAAAABACAAgBCAAAAAAAgAAAAAAAAAAgAAAIAAQACAAAEgAAAAAGAwPAPgAAAAAAAAAAAAAAAAAAAAAAAAAAAAA==

> <PUBCHEM_IUPAC_OPENEYE_NAME>
(1~{R},4~{R},6~{R},10~{S})-4,12,12-trimethyl-9-methylene-5-oxatricyclo[8.2.0.0^{4,6}]dodecane

> <PUBCHEM_IUPAC_CAS_NAME>
(1~{R},4~{R},6~{R},10~{S})-4,12,12-trimethyl-9-methylene-5-oxatricyclo[8.2.0.0^{4,6}]dodecane

> <PUBCHEM_IUPAC_NAME>
(1~{R},4~{R},6~{R},10~{S})-4,12,12-trimethyl-9-methylidene-5-oxatricyclo[8.2.0.0^{4,6}]dodecane

> <PUBCHEM_IUPAC_SYSTEMATIC_NAME>
(1~{R},4~{R},6~{R},10~{S})-4,12,12-trimethyl-9-methylidene-5-oxatricyclo[8.2.0.0^{4,6}]dodecane

> <PUBCHEM_IUPAC_TRADITIONAL_NAME>
(1~{R},4~{R},6~{R},10~{S})-4,12,12-trimethyl-9-methylene-5-oxatricyclo[8.2.0.0^{4,6}]dodecane

> <PUBCHEM_IUPAC_INCHI>
InChI=1S/C15H24O/c1-10-5-6-13-15(4,16-13)8-7-12-11(10)9-14(12,2)3/h11-13H,1,5-9H2,2-4H3/t11-,12-,13-,15-/m1/s1

> <PUBCHEM_IUPAC_INCHIKEY>
NVEQFIOZRFFVFW-RGCMKSIDSA-N

> <PUBCHEM_XLOGP3_AA>
3.6

> <PUBCHEM_EXACT_MASS>
220.183

> <PUBCHEM_MOLECULAR_FORMULA>
C15H24O

> <PUBCHEM_MOLECULAR_WEIGHT>
220.356

> <PUBCHEM_OPENEYE_CAN_SMILES>
CC1(CC2C1CCC3(C(O3)CCC2=C)C)C

> <PUBCHEM_OPENEYE_ISO_SMILES>
C[C@@]12CC[C@@H]3[C@H](CC3(C)C)C(=C)CC[C@H]1O2

> <PUBCHEM_CACTVS_TPSA>
12.5

> <PUBCHEM_MONOISOTOPIC_WEIGHT>
220.183

> <PUBCHEM_TOTAL_CHARGE>
0

> <PUBCHEM_HEAVY_ATOM_COUNT>
16

> <PUBCHEM_ATOM_DEF_STEREO_COUNT>
4

> <PUBCHEM_ATOM_UDEF_STEREO_COUNT>
0

> <PUBCHEM_BOND_DEF_STEREO_COUNT>
0

> <PUBCHEM_BOND_UDEF_STEREO_COUNT>
0

> <PUBCHEM_ISOTOPIC_ATOM_COUNT>
0

> <PUBCHEM_COMPONENT_COUNT>
1

> <PUBCHEM_CACTVS_TAUTO_COUNT>
-1

> <PUBCHEM_COORDINATE_TYPE>
1 __ 5 __ 255

> <PUBCHEM_BONDANNOTATIONS>
2  17  5 __ 4  18  6 __ 6  15  6 __ 8  23  5

$$$$
441005
 OpenBabel02201912233D

 39 40  0  0  1  0  0  0  0  0999 V2000
   -0.3576   -2.8246   -2.3700 C   0  0  1  0  0  0  0  0  0  0  0  0
   -0.6113   -2.2998   -0.9291 C   0  0  1  0  0  0  0  0  0  0  0  0
   -1.5068   -3.8217   -2.6573 C   0  0  0  0  0  0  0  0  0  0  0  0
   -0.9832   -3.2783    0.1966 C   0  0  0  0  0  0  0  0  0  0  0  0
    1.0376   -3.2973   -2.8837 C   0  0  0  0  0  0  0  0  0  0  0  0
   -1.7093   -4.8891   -1.5771 C   0  0  0  0  0  0  0  0  0  0  0  0
   -1.6971   -4.3734   -0.1514 C   0  0  0  0  0  0  0  0  0  0  0  0
   -0.7498   -2.8299    1.6524 C   0  0  0  0  0  0  0  0  0  0  0  0
    0.0624   -1.0670   -0.3413 C   0  0  0  0  0  0  0  0  0  0  0  0
   -0.7112   -1.2882    1.9275 C   0  0  0  0  0  0  0  0  0  0  0  0
   -0.7272   -0.5123    0.6193 C   0  0  0  0  0  0  0  0  0  0  0  0
    1.5170   -4.6761   -2.4321 C   0  0  0  0  0  0  0  0  0  0  0  0
    1.0326   -3.3052   -4.4358 C   0  0  0  0  0  0  0  0  0  0  0  0
   -2.5992   -5.0769    0.8186 C   0  0  0  0  0  0  0  0  0  0  0  0
   -2.1247    0.0062    0.3084 C   0  0  0  0  0  0  0  0  0  0  0  0
   -0.5622   -1.9428   -3.0015 H   0  0  0  0  0  0  0  0  0  0  0  0
   -1.6187   -1.8831   -1.1258 H   0  0  0  0  0  0  0  0  0  0  0  0
   -1.4086   -4.3014   -3.6303 H   0  0  0  0  0  0  0  0  0  0  0  0
   -2.4366   -3.2376   -2.7132 H   0  0  0  0  0  0  0  0  0  0  0  0
    1.7905   -2.5619   -2.5735 H   0  0  0  0  0  0  0  0  0  0  0  0
   -2.6568   -5.3922   -1.7855 H   0  0  0  0  0  0  0  0  0  0  0  0
   -0.9339   -5.6583   -1.6465 H   0  0  0  0  0  0  0  0  0  0  0  0
   -1.4969   -3.2578    2.3303 H   0  0  0  0  0  0  0  0  0  0  0  0
    0.2144   -3.2342    1.9794 H   0  0  0  0  0  0  0  0  0  0  0  0
    1.0974   -1.3174   -0.0625 H   0  0  0  0  0  0  0  0  0  0  0  0
   -1.5747   -1.0163    2.5481 H   0  0  0  0  0  0  0  0  0  0  0  0
    0.1732   -1.0216    2.5201 H   0  0  0  0  0  0  0  0  0  0  0  0
    0.8629   -5.4746   -2.7955 H   0  0  0  0  0  0  0  0  0  0  0  0
    2.5091   -4.8895   -2.8548 H   0  0  0  0  0  0  0  0  0  0  0  0
    1.5993   -4.7409   -1.3459 H   0  0  0  0  0  0  0  0  0  0  0  0
    0.7867   -2.3157   -4.8359 H   0  0  0  0  0  0  0  0  0  0  0  0
    2.0097   -3.5917   -4.8397 H   0  0  0  0  0  0  0  0  0  0  0  0
    0.3055   -4.0171   -4.8412 H   0  0  0  0  0  0  0  0  0  0  0  0
   -3.2750   -4.3415    1.2780 H   0  0  0  0  0  0  0  0  0  0  0  0
   -3.2549   -5.7910    0.3083 H   0  0  0  0  0  0  0  0  0  0  0  0
   -2.0532   -5.6045    1.6026 H   0  0  0  0  0  0  0  0  0  0  0  0
   -2.8832   -0.7463    0.5760 H   0  0  0  0  0  0  0  0  0  0  0  0
   -2.3437    0.9129    0.8711 H   0  0  0  0  0  0  0  0  0  0  0  0
   -2.2483    0.2231   -0.7569 H   0  0  0  0  0  0  0  0  0  0  0  0
  1  2  1  6  0  0  0
  1  3  1  0  0  0  0
  1  5  1  0  0  0  0
  1 16  1  0  0  0  0
  2  4  1  0  0  0  0
  2  9  1  0  0  0  0
  2 17  1  6  0  0  0
  3  6  1  0  0  0  0
  3 18  1  0  0  0  0
  3 19  1  0  0  0  0
  4  7  2  0  0  0  0
  4  8  1  0  0  0  0
  5 12  1  0  0  0  0
  5 13  1  0  0  0  0
  5 20  1  0  0  0  0
  6  7  1  0  0  0  0
  6 21  1  0  0  0  0
  6 22  1  0  0  0  0
  7 14  1  0  0  0  0
  8 10  1  0  0  0  0
  8 23  1  0  0  0  0
  8 24  1  0  0  0  0
  9 11  2  0  0  0  0
  9 25  1  0  0  0  0
 10 11  1  0  0  0  0
 10 26  1  0  0  0  0
 10 27  1  0  0  0  0
 11 15  1  0  0  0  0
 12 28  1  0  0  0  0
 12 29  1  0  0  0  0
 12 30  1  0  0  0  0
 13 31  1  0  0  0  0
 13 32  1  0  0  0  0
 13 33  1  0  0  0  0
 14 34  1  0  0  0  0
 14 35  1  0  0  0  0
 14 36  1  0  0  0  0
 15 37  1  0  0  0  0
 15 38  1  0  0  0  0
 15 39  1  0  0  0  0
M  END
> <PUBCHEM_COMPOUND_CID>
441005

> <PUBCHEM_COMPOUND_CANONICALIZED>
1

> <PUBCHEM_CACTVS_COMPLEXITY>
304

> <PUBCHEM_CACTVS_HBOND_ACCEPTOR>
0

> <PUBCHEM_CACTVS_HBOND_DONOR>
0

> <PUBCHEM_CACTVS_ROTATABLE_BOND>
1

> <PUBCHEM_CACTVS_SUBSKEYS>
AAADceBwAAAAAAAAAAAAAAAAAAAAAAAAAAAgQAAAAAAAAACAAAAAGAAAAAAADQCAAAACAAAAAACAAiBCAAAAAAAgAAAACAAAAAgAAAIAAQAAAAAAgAAIAAMAgMAOgAAAAAAAAAAAAAAAAAAAAAAAAAAAAA==

> <PUBCHEM_IUPAC_OPENEYE_NAME>
(1~{S},8~{a}~{R})-1-isopropyl-4,7-dimethyl-1,2,3,5,6,8~{a}-hexahydronaphthalene

> <PUBCHEM_IUPAC_CAS_NAME>
(1~{S},8~{a}~{R})-4,7-dimethyl-1-propan-2-yl-1,2,3,5,6,8~{a}-hexahydronaphthalene

> <PUBCHEM_IUPAC_NAME>
(1~{S},8~{a}~{R})-4,7-dimethyl-1-propan-2-yl-1,2,3,5,6,8~{a}-hexahydronaphthalene

> <PUBCHEM_IUPAC_SYSTEMATIC_NAME>
(1~{S},8~{a}~{R})-4,7-dimethyl-1-propan-2-yl-1,2,3,5,6,8~{a}-hexahydronaphthalene

> <PUBCHEM_IUPAC_TRADITIONAL_NAME>
(1~{S},8~{a}~{R})-1-isopropyl-4,7-dimethyl-1,2,3,5,6,8~{a}-hexahydronaphthalene

> <PUBCHEM_IUPAC_INCHI>
InChI=1S/C15H24/c1-10(2)13-8-6-12(4)14-7-5-11(3)9-15(13)14/h9-10,13,15H,5-8H2,1-4H3/t13-,15-/m0/s1

> <PUBCHEM_IUPAC_INCHIKEY>
FUCYIEXQVQJBKY-ZFWWWQNUSA-N

> <PUBCHEM_XLOGP3_AA>
3.8

> <PUBCHEM_EXACT_MASS>
204.188

> <PUBCHEM_MOLECULAR_FORMULA>
C15H24

> <PUBCHEM_MOLECULAR_WEIGHT>
204.357

> <PUBCHEM_OPENEYE_CAN_SMILES>
CC1=CC2C(CCC(=C2CC1)C)C(C)C

> <PUBCHEM_OPENEYE_ISO_SMILES>
CC1=C[C@H]2[C@@H](CCC(=C2CC1)C)C(C)C

> <PUBCHEM_CACTVS_TPSA>
0

> <PUBCHEM_MONOISOTOPIC_WEIGHT>
204.188

> <PUBCHEM_TOTAL_CHARGE>
0

> <PUBCHEM_HEAVY_ATOM_COUNT>
15

> <PUBCHEM_ATOM_DEF_STEREO_COUNT>
2

> <PUBCHEM_ATOM_UDEF_STEREO_COUNT>
0

> <PUBCHEM_BOND_DEF_STEREO_COUNT>
0

> <PUBCHEM_BOND_UDEF_STEREO_COUNT>
0

> <PUBCHEM_ISOTOPIC_ATOM_COUNT>
0

> <PUBCHEM_COMPONENT_COUNT>
1

> <PUBCHEM_CACTVS_TAUTO_COUNT>
-1

> <PUBCHEM_COORDINATE_TYPE>
1 __ 5 __ 255

> <PUBCHEM_BONDANNOTATIONS>
1  5  6 __ 2  17  6

$$$$
5281516_2
 OpenBabel02201912233D

 39 38  0  0  0  0  0  0  0  0999 V2000
    1.1405   -0.0771    0.0992 C   0  0  0  0  0  0  0  0  0  0  0  0
    0.6351    0.5141   -1.2270 C   0  0  0  0  0  0  0  0  0  0  0  0
    0.6365    0.5706    1.3828 C   0  0  0  0  0  0  0  0  0  0  0  0
   -0.2527    1.5869    1.4035 C   0  0  0  0  0  0  0  0  0  0  0  0
    1.1561   -0.2630   -2.4066 C   0  0  0  0  0  0  0  0  0  0  0  0
   -0.8521    2.2652    2.6033 C   0  0  0  0  0  0  0  0  0  0  0  0
    1.1973   -0.0669    2.6289 C   0  0  0  0  0  0  0  0  0  0  0  0
    0.4080   -0.8600   -3.3546 C   0  0  0  0  0  0  0  0  0  0  0  0
   -2.1411    1.6067    3.0080 C   0  0  0  0  0  0  0  0  0  0  0  0
    1.0453   -1.6430   -4.4679 C   0  0  0  0  0  0  0  0  0  0  0  0
   -1.0946   -0.8022   -3.3765 C   0  0  0  0  0  0  0  0  0  0  0  0
   -2.4373    0.9996    4.1774 C   0  0  0  0  0  0  0  0  0  0  0  0
   -1.4729    0.8724    5.3287 C   0  0  0  0  0  0  0  0  0  0  0  0
   -3.7692    0.4209    4.3480 C   0  0  0  0  0  0  0  0  0  0  0  0
   -4.2273   -0.2093    5.4379 C   0  0  0  0  0  0  0  0  0  0  0  0
    2.2388   -0.0269    0.1044 H   0  0  0  0  0  0  0  0  0  0  0  0
    0.8740   -1.1422    0.1351 H   0  0  0  0  0  0  0  0  0  0  0  0
   -0.4587    0.5283   -1.2272 H   0  0  0  0  0  0  0  0  0  0  0  0
    0.9740    1.5523   -1.3227 H   0  0  0  0  0  0  0  0  0  0  0  0
   -0.6325    1.9870    0.4678 H   0  0  0  0  0  0  0  0  0  0  0  0
    2.2415   -0.3314   -2.4702 H   0  0  0  0  0  0  0  0  0  0  0  0
   -0.1260    2.3430    3.4129 H   0  0  0  0  0  0  0  0  0  0  0  0
   -1.0746    3.3042    2.3284 H   0  0  0  0  0  0  0  0  0  0  0  0
    0.6859   -1.0139    2.8302 H   0  0  0  0  0  0  0  0  0  0  0  0
    2.2659   -0.2744    2.5062 H   0  0  0  0  0  0  0  0  0  0  0  0
    1.1071    0.5666    3.5134 H   0  0  0  0  0  0  0  0  0  0  0  0
   -2.9075    1.6447    2.2324 H   0  0  0  0  0  0  0  0  0  0  0  0
   -1.5147   -1.2691   -2.4799 H   0  0  0  0  0  0  0  0  0  0  0  0
   -1.4413    0.2347   -3.4403 H   0  0  0  0  0  0  0  0  0  0  0  0
   -1.5013   -1.3330   -4.2436 H   0  0  0  0  0  0  0  0  0  0  0  0
    0.6864   -2.6774   -4.4518 H   0  0  0  0  0  0  0  0  0  0  0  0
    0.7949   -1.1998   -5.4368 H   0  0  0  0  0  0  0  0  0  0  0  0
    2.1367   -1.6701   -4.3827 H   0  0  0  0  0  0  0  0  0  0  0  0
   -1.8797    1.3539    6.2243 H   0  0  0  0  0  0  0  0  0  0  0  0
   -1.2792   -0.1829    5.5503 H   0  0  0  0  0  0  0  0  0  0  0  0
   -0.5029    1.3358    5.1430 H   0  0  0  0  0  0  0  0  0  0  0  0
   -4.4533    0.5120    3.5035 H   0  0  0  0  0  0  0  0  0  0  0  0
   -5.2383   -0.6034    5.4588 H   0  0  0  0  0  0  0  0  0  0  0  0
   -3.6292   -0.3558    6.3302 H   0  0  0  0  0  0  0  0  0  0  0  0
  1  2  1  0  0  0  0
  1  3  1  0  0  0  0
  1 16  1  0  0  0  0
  1 17  1  0  0  0  0
  2  5  1  0  0  0  0
  2 18  1  0  0  0  0
  2 19  1  0  0  0  0
  3  4  2  0  0  0  0
  3  7  1  0  0  0  0
  4  6  1  0  0  0  0
  4 20  1  0  0  0  0
  5  8  2  0  0  0  0
  5 21  1  0  0  0  0
  6  9  1  0  0  0  0
  6 22  1  0  0  0  0
  6 23  1  0  0  0  0
  7 24  1  0  0  0  0
  7 25  1  0  0  0  0
  7 26  1  0  0  0  0
  8 10  1  0  0  0  0
  8 11  1  0  0  0  0
  9 12  2  0  0  0  0
  9 27  1  0  0  0  0
 10 31  1  0  0  0  0
 10 32  1  0  0  0  0
 10 33  1  0  0  0  0
 11 28  1  0  0  0  0
 11 29  1  0  0  0  0
 11 30  1  0  0  0  0
 12 13  1  0  0  0  0
 12 14  1  0  0  0  0
 13 34  1  0  0  0  0
 13 35  1  0  0  0  0
 13 36  1  0  0  0  0
 14 15  2  0  0  0  0
 14 37  1  0  0  0  0
 15 38  1  0  0  0  0
 15 39  1  0  0  0  0
M  END
> <PUBCHEM_COMPOUND_CID>
5281516

> <PUBCHEM_COMPOUND_CANONICALIZED>
1

> <PUBCHEM_CACTVS_COMPLEXITY>
270

> <PUBCHEM_CACTVS_HBOND_ACCEPTOR>
0

> <PUBCHEM_CACTVS_HBOND_DONOR>
0

> <PUBCHEM_CACTVS_ROTATABLE_BOND>
6

> <PUBCHEM_CACTVS_SUBSKEYS>
AAADceBwAAAAAAAAAAAAAAAAAAAAAAAAAAAAAAAAAAAAAAAAAAAAGAAAAAAADACAAAACAAAAAACAAiBCAAAAAAAgAAAICAAAAAgIAAIAAQAAAAAAgAAIgAIAAAAAAAAAAAAAAAAAAAAAAAAAAAAAAAAAAA==

> <PUBCHEM_IUPAC_OPENEYE_NAME>
(3~{E},6~{E})-3,7,11-trimethyldodeca-1,3,6,10-tetraene

> <PUBCHEM_IUPAC_CAS_NAME>
(3~{E},6~{E})-3,7,11-trimethyldodeca-1,3,6,10-tetraene

> <PUBCHEM_IUPAC_NAME>
(3~{E},6~{E})-3,7,11-trimethyldodeca-1,3,6,10-tetraene

> <PUBCHEM_IUPAC_SYSTEMATIC_NAME>
(3~{E},6~{E})-3,7,11-trimethyldodeca-1,3,6,10-tetraene

> <PUBCHEM_IUPAC_TRADITIONAL_NAME>
(3~{E},6~{E})-3,7,11-trimethyldodeca-1,3,6,10-tetraene

> <PUBCHEM_IUPAC_INCHI>
InChI=1S/C15H24/c1-6-14(4)10-8-12-15(5)11-7-9-13(2)3/h6,9-10,12H,1,7-8,11H2,2-5H3/b14-10+,15-12+

> <PUBCHEM_IUPAC_INCHIKEY>
CXENHBSYCFFKJS-VDQVFBMKSA-N

> <PUBCHEM_XLOGP3_AA>
6.1

> <PUBCHEM_EXACT_MASS>
204.188

> <PUBCHEM_MOLECULAR_FORMULA>
C15H24

> <PUBCHEM_MOLECULAR_WEIGHT>
204.357

> <PUBCHEM_OPENEYE_CAN_SMILES>
CC(=CCCC(=CCC=C(C)C=C)C)C

> <PUBCHEM_OPENEYE_ISO_SMILES>
CC(=CCC/C(=C/C/C=C(\C)/C=C)/C)C

> <PUBCHEM_CACTVS_TPSA>
0

> <PUBCHEM_MONOISOTOPIC_WEIGHT>
204.188

> <PUBCHEM_TOTAL_CHARGE>
0

> <PUBCHEM_HEAVY_ATOM_COUNT>
15

> <PUBCHEM_ATOM_DEF_STEREO_COUNT>
0

> <PUBCHEM_ATOM_UDEF_STEREO_COUNT>
0

> <PUBCHEM_BOND_DEF_STEREO_COUNT>
2

> <PUBCHEM_BOND_UDEF_STEREO_COUNT>
0

> <PUBCHEM_ISOTOPIC_ATOM_COUNT>
0

> <PUBCHEM_COMPONENT_COUNT>
1

> <PUBCHEM_CACTVS_TAUTO_COUNT>
-1

> <PUBCHEM_COORDINATE_TYPE>
1 __ 5 __ 255

$$$$
6429302_2
 OpenBabel02201912233D

 39 40  0  0  1  0  0  0  0  0999 V2000
   -0.8977    0.0215    1.1443 C   0  0  2  0  0  0  0  0  0  0  0  0
   -0.5752    1.0293   -0.0532 C   0  0  2  0  0  0  0  0  0  0  0  0
   -0.4119   -1.0715    0.0810 C   0  0  1  0  0  0  0  0  0  0  0  0
   -0.9731   -0.1111   -1.0334 C   0  0  0  0  0  0  0  0  0  0  0  0
    0.9315    1.3286   -0.2724 C   0  0  0  0  0  0  0  0  0  0  0  0
   -2.3492   -0.1266    1.6969 C   0  0  0  0  0  0  0  0  0  0  0  0
    1.0814   -1.1590   -0.0792 C   0  0  0  0  0  0  0  0  0  0  0  0
   -0.0239    0.3063    2.3921 C   0  0  0  0  0  0  0  0  0  0  0  0
    1.7130    0.0220   -0.2676 C   0  0  0  0  0  0  0  0  0  0  0  0
   -3.4277   -0.5853    0.7225 C   0  0  0  0  0  0  0  0  0  0  0  0
    1.7143   -2.5094   -0.0663 C   0  0  0  0  0  0  0  0  0  0  0  0
   -4.7738   -0.6958    1.3834 C   0  0  0  0  0  0  0  0  0  0  0  0
   -5.9082   -0.1334    0.9209 C   0  0  0  0  0  0  0  0  0  0  0  0
   -7.1998   -0.2432    1.6762 C   0  0  0  0  0  0  0  0  0  0  0  0
   -5.9704    0.6387   -0.3653 C   0  0  0  0  0  0  0  0  0  0  0  0
   -1.1966    1.9298   -0.0893 H   0  0  0  0  0  0  0  0  0  0  0  0
   -0.8972   -2.0497    0.1427 H   0  0  0  0  0  0  0  0  0  0  0  0
   -0.4544   -0.1187   -2.0007 H   0  0  0  0  0  0  0  0  0  0  0  0
   -2.0256   -0.2030   -1.2902 H   0  0  0  0  0  0  0  0  0  0  0  0
    1.3082    1.9911    0.5144 H   0  0  0  0  0  0  0  0  0  0  0  0
    1.0742    1.8349   -1.2331 H   0  0  0  0  0  0  0  0  0  0  0  0
   -2.3276   -0.8558    2.5195 H   0  0  0  0  0  0  0  0  0  0  0  0
   -2.6531    0.8297    2.1444 H   0  0  0  0  0  0  0  0  0  0  0  0
    1.0512    0.2590    2.2124 H   0  0  0  0  0  0  0  0  0  0  0  0
   -0.2398    1.3110    2.7764 H   0  0  0  0  0  0  0  0  0  0  0  0
   -0.2303   -0.4099    3.1948 H   0  0  0  0  0  0  0  0  0  0  0  0
    2.7854    0.0657   -0.4186 H   0  0  0  0  0  0  0  0  0  0  0  0
   -3.4946    0.1381   -0.0897 H   0  0  0  0  0  0  0  0  0  0  0  0
   -3.1748   -1.5643    0.2999 H   0  0  0  0  0  0  0  0  0  0  0  0
    1.4414   -3.0467    0.8474 H   0  0  0  0  0  0  0  0  0  0  0  0
    1.3701   -3.0937   -0.9256 H   0  0  0  0  0  0  0  0  0  0  0  0
    2.8053   -2.4465   -0.1097 H   0  0  0  0  0  0  0  0  0  0  0  0
   -4.8050   -1.2770    2.3033 H   0  0  0  0  0  0  0  0  0  0  0  0
   -5.3703    1.5516   -0.3059 H   0  0  0  0  0  0  0  0  0  0  0  0
   -5.6165    0.0304   -1.2054 H   0  0  0  0  0  0  0  0  0  0  0  0
   -6.9977    0.9368   -0.6016 H   0  0  0  0  0  0  0  0  0  0  0  0
   -7.5998    0.7562    1.8770 H   0  0  0  0  0  0  0  0  0  0  0  0
   -7.9346   -0.8045    1.0921 H   0  0  0  0  0  0  0  0  0  0  0  0
   -7.0729   -0.7476    2.6393 H   0  0  0  0  0  0  0  0  0  0  0  0
  1  2  1  6  0  0  0
  1  6  1  0  0  0  0
  1  8  1  0  0  0  0
  2  4  1  0  0  0  0
  2  5  1  0  0  0  0
  2 16  1  6  0  0  0
  3  1  1  1  0  0  0
  3  4  1  0  0  0  0
  3  7  1  0  0  0  0
  3 17  1  0  0  0  0
  4 18  1  0  0  0  0
  4 19  1  0  0  0  0
  5  9  1  0  0  0  0
  5 20  1  0  0  0  0
  5 21  1  0  0  0  0
  6 10  1  0  0  0  0
  6 22  1  0  0  0  0
  6 23  1  0  0  0  0
  7  9  2  0  0  0  0
  7 11  1  0  0  0  0
  8 24  1  0  0  0  0
  8 25  1  0  0  0  0
  8 26  1  0  0  0  0
  9 27  1  0  0  0  0
 10 12  1  0  0  0  0
 10 28  1  0  0  0  0
 10 29  1  0  0  0  0
 11 30  1  0  0  0  0
 11 31  1  0  0  0  0
 11 32  1  0  0  0  0
 12 13  2  0  0  0  0
 12 33  1  0  0  0  0
 13 14  1  0  0  0  0
 13 15  1  0  0  0  0
 14 37  1  0  0  0  0
 14 38  1  0  0  0  0
 14 39  1  0  0  0  0
 15 34  1  0  0  0  0
 15 35  1  0  0  0  0
 15 36  1  0  0  0  0
M  END
> <PUBCHEM_COMPOUND_CID>
6429302

> <PUBCHEM_COMPOUND_CANONICALIZED>
1

> <PUBCHEM_CACTVS_COMPLEXITY>
304

> <PUBCHEM_CACTVS_HBOND_ACCEPTOR>
0

> <PUBCHEM_CACTVS_HBOND_DONOR>
0

> <PUBCHEM_CACTVS_ROTATABLE_BOND>
3

> <PUBCHEM_CACTVS_SUBSKEYS>
AAADceBwAAAAAAAAAAAAAAAAAABgAAAAAAAgQAAAAAAAAAAAAAAAGAAAAAAADwCAAAACAAAAAACAAiBCAAAAAAAgAAAACAAAAAgAAAIAAQAAAAAAgAAIAAMAgMAPgAAAAAAAAAAAAAAAAAAAAAAAAAAAAA==

> <PUBCHEM_IUPAC_OPENEYE_NAME>
(1~{S},5~{S},6~{R})-2,6-dimethyl-6-(4-methylpent-3-enyl)bicyclo[3.1.1]hept-2-ene

> <PUBCHEM_IUPAC_CAS_NAME>
(1~{S},5~{S},6~{R})-2,6-dimethyl-6-(4-methylpent-3-enyl)bicyclo[3.1.1]hept-2-ene

> <PUBCHEM_IUPAC_NAME>
(1~{S},5~{S},6~{R})-2,6-dimethyl-6-(4-methylpent-3-enyl)bicyclo[3.1.1]hept-2-ene

> <PUBCHEM_IUPAC_SYSTEMATIC_NAME>
(1~{S},5~{S},6~{R})-2,6-dimethyl-6-(4-methylpent-3-enyl)bicyclo[3.1.1]hept-2-ene

> <PUBCHEM_IUPAC_TRADITIONAL_NAME>
(1~{S},5~{S},6~{R})-2,6-dimethyl-6-(4-methylpent-3-enyl)bicyclo[3.1.1]hept-2-ene

> <PUBCHEM_IUPAC_INCHI>
InChI=1S/C15H24/c1-11(2)6-5-9-15(4)13-8-7-12(3)14(15)10-13/h6-7,13-14H,5,8-10H2,1-4H3/t13-,14-,15+/m0/s1

> <PUBCHEM_IUPAC_INCHIKEY>
YMBFCQPIMVLNIU-SOUVJXGZSA-N

> <PUBCHEM_XLOGP3_AA>
4.8

> <PUBCHEM_EXACT_MASS>
204.188

> <PUBCHEM_MOLECULAR_FORMULA>
C15H24

> <PUBCHEM_MOLECULAR_WEIGHT>
204.357

> <PUBCHEM_OPENEYE_CAN_SMILES>
CC1=CCC2CC1C2(C)CCC=C(C)C

> <PUBCHEM_OPENEYE_ISO_SMILES>
CC1=CC[C@H]2C[C@@H]1[C@]2(C)CCC=C(C)C

> <PUBCHEM_CACTVS_TPSA>
0

> <PUBCHEM_MONOISOTOPIC_WEIGHT>
204.188

> <PUBCHEM_TOTAL_CHARGE>
0

> <PUBCHEM_HEAVY_ATOM_COUNT>
15

> <PUBCHEM_ATOM_DEF_STEREO_COUNT>
3

> <PUBCHEM_ATOM_UDEF_STEREO_COUNT>
0

> <PUBCHEM_BOND_DEF_STEREO_COUNT>
0

> <PUBCHEM_BOND_UDEF_STEREO_COUNT>
0

> <PUBCHEM_ISOTOPIC_ATOM_COUNT>
0

> <PUBCHEM_COMPONENT_COUNT>
1

> <PUBCHEM_CACTVS_TAUTO_COUNT>
-1

> <PUBCHEM_COORDINATE_TYPE>
1 __ 5 __ 255

> <PUBCHEM_BONDANNOTATIONS>
1  8  6 __ 2  16  6 __ 3  17  5

$$$$
5281515
 OpenBabel02201912233D

 39 40  0  0  1  0  0  0  0  0999 V2000
   -0.8499   -2.1186    0.9922 C   0  0  0  0  0  0  0  0  0  0  0  0
   -0.8186   -0.7258    0.2330 C   0  0  1  0  0  0  0  0  0  0  0  0
    0.2152   -0.2947    1.3125 C   0  0  2  0  0  0  0  0  0  0  0  0
   -0.5796   -1.2412    2.2690 C   0  0  0  0  0  0  0  0  0  0  0  0
   -0.5025   -0.7309   -1.2518 C   0  0  0  0  0  0  0  0  0  0  0  0
    0.2729   -3.1340    0.7271 C   0  0  0  0  0  0  0  0  0  0  0  0
   -2.2098   -2.8027    0.8991 C   0  0  0  0  0  0  0  0  0  0  0  0
    0.3433    1.1617    1.5761 C   0  0  0  0  0  0  0  0  0  0  0  0
   -0.7194    0.6567   -1.8762 C   0  0  0  0  0  0  0  0  0  0  0  0
    1.3331    1.9587    0.7426 C   0  0  0  0  0  0  0  0  0  0  0  0
    0.4854    1.5034   -2.2238 C   0  0  0  0  0  0  0  0  0  0  0  0
    2.1959    1.2303   -0.3228 C   0  0  0  0  0  0  0  0  0  0  0  0
   -0.3261    1.7659    2.5644 C   0  0  0  0  0  0  0  0  0  0  0  0
    1.7337    1.5120   -1.7269 C   0  0  0  0  0  0  0  0  0  0  0  0
    0.1788    2.6593   -3.1506 C   0  0  0  0  0  0  0  0  0  0  0  0
   -1.7810   -0.1976    0.3665 H   0  0  0  0  0  0  0  0  0  0  0  0
    1.2181   -0.7108    1.1674 H   0  0  0  0  0  0  0  0  0  0  0  0
   -1.4972   -0.8322    2.7098 H   0  0  0  0  0  0  0  0  0  0  0  0
    0.0056   -1.7101    3.0652 H   0  0  0  0  0  0  0  0  0  0  0  0
   -1.2231   -1.4123   -1.7276 H   0  0  0  0  0  0  0  0  0  0  0  0
    0.4897   -1.1385   -1.4678 H   0  0  0  0  0  0  0  0  0  0  0  0
    0.0653   -4.0797    1.2370 H   0  0  0  0  0  0  0  0  0  0  0  0
    0.3790   -3.3380   -0.3407 H   0  0  0  0  0  0  0  0  0  0  0  0
   -2.3056   -3.3363   -0.0551 H   0  0  0  0  0  0  0  0  0  0  0  0
    1.2490   -2.7961    1.0968 H   0  0  0  0  0  0  0  0  0  0  0  0
   -2.3352   -3.5317    1.7054 H   0  0  0  0  0  0  0  0  0  0  0  0
   -3.0356   -2.0874    0.9610 H   0  0  0  0  0  0  0  0  0  0  0  0
   -1.2046    0.4473   -2.8424 H   0  0  0  0  0  0  0  0  0  0  0  0
   -1.4437    1.2524   -1.3101 H   0  0  0  0  0  0  0  0  0  0  0  0
    0.7962    2.7969    0.2793 H   0  0  0  0  0  0  0  0  0  0  0  0
    2.0371    2.4253    1.4511 H   0  0  0  0  0  0  0  0  0  0  0  0
    2.4159    0.1826   -0.1427 H   0  0  0  0  0  0  0  0  0  0  0  0
    3.1753    1.7240   -0.2631 H   0  0  0  0  0  0  0  0  0  0  0  0
   -0.1875    2.8230    2.7667 H   0  0  0  0  0  0  0  0  0  0  0  0
   -1.0062    1.2439    3.2234 H   0  0  0  0  0  0  0  0  0  0  0  0
    2.4752    2.1017   -2.2685 H   0  0  0  0  0  0  0  0  0  0  0  0
   -0.8502    2.6415   -3.5146 H   0  0  0  0  0  0  0  0  0  0  0  0
    0.8616    2.6929   -4.0018 H   0  0  0  0  0  0  0  0  0  0  0  0
    0.2886    3.5922   -2.5762 H   0  0  0  0  0  0  0  0  0  0  0  0
  1  2  1  0  0  0  0
  1  4  1  0  0  0  0
  1  6  1  0  0  0  0
  1  7  1  0  0  0  0
  2  3  1  1  0  0  0
  2  5  1  0  0  0  0
  2 16  1  0  0  0  0
  3  4  1  0  0  0  0
  3  8  1  0  0  0  0
  3 17  1  6  0  0  0
  4 18  1  0  0  0  0
  4 19  1  0  0  0  0
  5  9  1  0  0  0  0
  5 20  1  0  0  0  0
  5 21  1  0  0  0  0
  6 22  1  0  0  0  0
  6 23  1  0  0  0  0
  6 25  1  0  0  0  0
  7 24  1  0  0  0  0
  7 26  1  0  0  0  0
  7 27  1  0  0  0  0
  8 10  1  0  0  0  0
  8 13  2  0  0  0  0
  9 11  1  0  0  0  0
  9 28  1  0  0  0  0
  9 29  1  0  0  0  0
 10 12  1  0  0  0  0
 10 30  1  0  0  0  0
 10 31  1  0  0  0  0
 11 14  2  0  0  0  0
 11 15  1  0  0  0  0
 12 14  1  0  0  0  0
 12 32  1  0  0  0  0
 12 33  1  0  0  0  0
 13 34  1  0  0  0  0
 13 35  1  0  0  0  0
 14 36  1  0  0  0  0
 15 37  1  0  0  0  0
 15 38  1  0  0  0  0
 15 39  1  0  0  0  0
M  END
> <PUBCHEM_COMPOUND_CID>
5281515

> <PUBCHEM_COMPOUND_CANONICALIZED>
1

> <PUBCHEM_CACTVS_COMPLEXITY>
293

> <PUBCHEM_CACTVS_HBOND_ACCEPTOR>
0

> <PUBCHEM_CACTVS_HBOND_DONOR>
0

> <PUBCHEM_CACTVS_ROTATABLE_BOND>
0

> <PUBCHEM_CACTVS_SUBSKEYS>
AAADceBwAAAAAAAAAAAAAAAAAABgAAAAAAAAAAAAAAAAAEAAAAAAGAAAAAAADwCAAAACAAAAAACAAiBCAAAAAAAgAAAACAAAAAgAAAIAAQAAAAAAgAAIAAMAgMAPgAAAAAAAAAAAAAAAAAAAAAAAAAAAAA==

> <PUBCHEM_IUPAC_OPENEYE_NAME>
(1~{R},4~{E},9~{S})-4,11,11-trimethyl-8-methylene-bicyclo[7.2.0]undec-4-ene

> <PUBCHEM_IUPAC_CAS_NAME>
(1~{R},4~{E},9~{S})-4,11,11-trimethyl-8-methylenebicyclo[7.2.0]undec-4-ene

> <PUBCHEM_IUPAC_NAME>
(1~{R},4~{E},9~{S})-4,11,11-trimethyl-8-methylidenebicyclo[7.2.0]undec-4-ene

> <PUBCHEM_IUPAC_SYSTEMATIC_NAME>
(1~{R},4~{E},9~{S})-4,11,11-trimethyl-8-methylidene-bicyclo[7.2.0]undec-4-ene

> <PUBCHEM_IUPAC_TRADITIONAL_NAME>
(1~{R},4~{E},9~{S})-4,11,11-trimethyl-8-methylene-bicyclo[7.2.0]undec-4-ene

> <PUBCHEM_IUPAC_INCHI>
InChI=1S/C15H24/c1-11-6-5-7-12(2)13-10-15(3,4)14(13)9-8-11/h6,13-14H,2,5,7-10H2,1,3-4H3/b11-6+/t13-,14-/m1/s1

> <PUBCHEM_IUPAC_INCHIKEY>
NPNUFJAVOOONJE-GFUGXAQUSA-N

> <PUBCHEM_XLOGP3_AA>
4.4

> <PUBCHEM_EXACT_MASS>
204.188

> <PUBCHEM_MOLECULAR_FORMULA>
C15H24

> <PUBCHEM_MOLECULAR_WEIGHT>
204.357

> <PUBCHEM_OPENEYE_CAN_SMILES>
CC1=CCCC(=C)C2CC(C2CC1)(C)C

> <PUBCHEM_OPENEYE_ISO_SMILES>
C/C/1=C\CCC(=C)[C@H]2CC([C@@H]2CC1)(C)C

> <PUBCHEM_CACTVS_TPSA>
0

> <PUBCHEM_MONOISOTOPIC_WEIGHT>
204.188

> <PUBCHEM_TOTAL_CHARGE>
0

> <PUBCHEM_HEAVY_ATOM_COUNT>
15

> <PUBCHEM_ATOM_DEF_STEREO_COUNT>
2

> <PUBCHEM_ATOM_UDEF_STEREO_COUNT>
0

> <PUBCHEM_BOND_DEF_STEREO_COUNT>
1

> <PUBCHEM_BOND_UDEF_STEREO_COUNT>
0

> <PUBCHEM_ISOTOPIC_ATOM_COUNT>
0

> <PUBCHEM_COMPONENT_COUNT>
1

> <PUBCHEM_CACTVS_TAUTO_COUNT>
-1

> <PUBCHEM_COORDINATE_TYPE>
1 __ 5 __ 255

> <PUBCHEM_BONDANNOTATIONS>
2  16  6 __ 3  17  5

$$$$
5281517
 OpenBabel02201912233D

 39 38  0  0  0  0  0  0  0  0999 V2000
    0.8558   -0.0038   -0.0204 C   0  0  0  0  0  0  0  0  0  0  0  0
    0.3825   -1.4381    0.1971 C   0  0  0  0  0  0  0  0  0  0  0  0
    1.1752    0.3547   -1.4812 C   0  0  0  0  0  0  0  0  0  0  0  0
   -0.8942   -3.1086    1.6625 C   0  0  0  0  0  0  0  0  0  0  0  0
   -0.4366   -1.7336    1.2293 C   0  0  0  0  0  0  0  0  0  0  0  0
    0.2473   -3.9260    2.2931 C   0  0  0  0  0  0  0  0  0  0  0  0
    1.7020    1.7553   -1.6492 C   0  0  0  0  0  0  0  0  0  0  0  0
    0.9343   -2.4782   -0.7404 C   0  0  0  0  0  0  0  0  0  0  0  0
    2.9210    2.0897   -2.1213 C   0  0  0  0  0  0  0  0  0  0  0  0
   -0.1749   -5.3008    2.7733 C   0  0  0  0  0  0  0  0  0  0  0  0
    3.3108    3.5276   -2.3246 C   0  0  0  0  0  0  0  0  0  0  0  0
    3.9718    1.0773   -2.4894 C   0  0  0  0  0  0  0  0  0  0  0  0
   -0.2385   -6.4322    1.8577 C   0  0  0  0  0  0  0  0  0  0  0  0
   -0.4277   -5.5031    4.0781 C   0  0  0  0  0  0  0  0  0  0  0  0
   -0.0117   -6.4206    0.5387 C   0  0  0  0  0  0  0  0  0  0  0  0
    1.7596    0.1414    0.5863 H   0  0  0  0  0  0  0  0  0  0  0  0
    0.1021    0.6982    0.3612 H   0  0  0  0  0  0  0  0  0  0  0  0
    1.9005   -0.3591   -1.8835 H   0  0  0  0  0  0  0  0  0  0  0  0
    0.2682    0.2532   -2.0903 H   0  0  0  0  0  0  0  0  0  0  0  0
   -1.6919   -2.9779    2.4063 H   0  0  0  0  0  0  0  0  0  0  0  0
   -1.3567   -3.6355    0.8202 H   0  0  0  0  0  0  0  0  0  0  0  0
   -0.7854   -0.9223    1.8684 H   0  0  0  0  0  0  0  0  0  0  0  0
    1.0926   -4.0274    1.6029 H   0  0  0  0  0  0  0  0  0  0  0  0
    0.6546   -3.3529    3.1381 H   0  0  0  0  0  0  0  0  0  0  0  0
    0.9956    2.5456   -1.4007 H   0  0  0  0  0  0  0  0  0  0  0  0
    0.6507   -2.2600   -1.7750 H   0  0  0  0  0  0  0  0  0  0  0  0
    2.0258   -2.5128   -0.6651 H   0  0  0  0  0  0  0  0  0  0  0  0
    0.5557   -3.4785   -0.5395 H   0  0  0  0  0  0  0  0  0  0  0  0
    4.1826    3.7774   -1.7099 H   0  0  0  0  0  0  0  0  0  0  0  0
    3.5675    3.6983   -3.3762 H   0  0  0  0  0  0  0  0  0  0  0  0
    4.2110    0.4365   -1.6342 H   0  0  0  0  0  0  0  0  0  0  0  0
    3.6354    0.4563   -3.3254 H   0  0  0  0  0  0  0  0  0  0  0  0
    4.9032    1.5644   -2.7983 H   0  0  0  0  0  0  0  0  0  0  0  0
    2.5048    4.2185   -2.0637 H   0  0  0  0  0  0  0  0  0  0  0  0
   -0.4839   -7.3965    2.3028 H   0  0  0  0  0  0  0  0  0  0  0  0
   -0.3649   -4.6920    4.7973 H   0  0  0  0  0  0  0  0  0  0  0  0
   -0.6973   -6.4782    4.4722 H   0  0  0  0  0  0  0  0  0  0  0  0
   -0.0774   -7.3391   -0.0369 H   0  0  0  0  0  0  0  0  0  0  0  0
    0.2427   -5.5262   -0.0113 H   0  0  0  0  0  0  0  0  0  0  0  0
  1  2  1  0  0  0  0
  1  3  1  0  0  0  0
  1 16  1  0  0  0  0
  1 17  1  0  0  0  0
  2  5  2  0  0  0  0
  2  8  1  0  0  0  0
  3  7  1  0  0  0  0
  3 18  1  0  0  0  0
  3 19  1  0  0  0  0
  4  5  1  0  0  0  0
  4  6  1  0  0  0  0
  4 20  1  0  0  0  0
  4 21  1  0  0  0  0
  5 22  1  0  0  0  0
  6 10  1  0  0  0  0
  6 23  1  0  0  0  0
  6 24  1  0  0  0  0
  7  9  2  0  0  0  0
  7 25  1  0  0  0  0
  8 26  1  0  0  0  0
  8 27  1  0  0  0  0
  8 28  1  0  0  0  0
  9 11  1  0  0  0  0
  9 12  1  0  0  0  0
 10 13  1  0  0  0  0
 10 14  2  0  0  0  0
 11 29  1  0  0  0  0
 11 30  1  0  0  0  0
 11 34  1  0  0  0  0
 12 31  1  0  0  0  0
 12 32  1  0  0  0  0
 12 33  1  0  0  0  0
 13 15  2  0  0  0  0
 13 35  1  0  0  0  0
 14 36  1  0  0  0  0
 14 37  1  0  0  0  0
 15 38  1  0  0  0  0
 15 39  1  0  0  0  0
M  END
> <PUBCHEM_COMPOUND_CID>
5281517

> <PUBCHEM_COMPOUND_CANONICALIZED>
1

> <PUBCHEM_CACTVS_COMPLEXITY>
260

> <PUBCHEM_CACTVS_HBOND_ACCEPTOR>
0

> <PUBCHEM_CACTVS_HBOND_DONOR>
0

> <PUBCHEM_CACTVS_ROTATABLE_BOND>
7

> <PUBCHEM_CACTVS_SUBSKEYS>
AAADceBwAAAAAAAAAAAAAAAAAAAAAAAAAAAAAAAAAAAAAAAAAAAAGAAAAAAADACAAAACAAAAAACAAiBCAAAAAAAgAAAICAAAAAgIAAIAAQAAAAAAgAAIAAIAAAAAAAAAAAAAAAAAAAAAAAAAAAAAAAAAAA==

> <PUBCHEM_IUPAC_OPENEYE_NAME>
(6~{E})-7,11-dimethyl-3-methylene-dodeca-1,6,10-triene

> <PUBCHEM_IUPAC_CAS_NAME>
(6~{E})-7,11-dimethyl-3-methylenedodeca-1,6,10-triene

> <PUBCHEM_IUPAC_NAME>
(6~{E})-7,11-dimethyl-3-methylidenedodeca-1,6,10-triene

> <PUBCHEM_IUPAC_SYSTEMATIC_NAME>
(6~{E})-7,11-dimethyl-3-methylidene-dodeca-1,6,10-triene

> <PUBCHEM_IUPAC_TRADITIONAL_NAME>
(6~{E})-7,11-dimethyl-3-methylene-dodeca-1,6,10-triene

> <PUBCHEM_IUPAC_INCHI>
InChI=1S/C15H24/c1-6-14(4)10-8-12-15(5)11-7-9-13(2)3/h6,9,12H,1,4,7-8,10-11H2,2-3,5H3/b15-12+

> <PUBCHEM_IUPAC_INCHIKEY>
JSNRRGGBADWTMC-NTCAYCPXSA-N

> <PUBCHEM_XLOGP3_AA>
6.2

> <PUBCHEM_EXACT_MASS>
204.188

> <PUBCHEM_MOLECULAR_FORMULA>
C15H24

> <PUBCHEM_MOLECULAR_WEIGHT>
204.357

> <PUBCHEM_OPENEYE_CAN_SMILES>
CC(=CCCC(=CCCC(=C)C=C)C)C

> <PUBCHEM_OPENEYE_ISO_SMILES>
CC(=CCC/C(=C/CCC(=C)C=C)/C)C

> <PUBCHEM_CACTVS_TPSA>
0

> <PUBCHEM_MONOISOTOPIC_WEIGHT>
204.188

> <PUBCHEM_TOTAL_CHARGE>
0

> <PUBCHEM_HEAVY_ATOM_COUNT>
15

> <PUBCHEM_ATOM_DEF_STEREO_COUNT>
0

> <PUBCHEM_ATOM_UDEF_STEREO_COUNT>
0

> <PUBCHEM_BOND_DEF_STEREO_COUNT>
1

> <PUBCHEM_BOND_UDEF_STEREO_COUNT>
0

> <PUBCHEM_ISOTOPIC_ATOM_COUNT>
0

> <PUBCHEM_COMPONENT_COUNT>
1

> <PUBCHEM_CACTVS_TAUTO_COUNT>
-1

> <PUBCHEM_COORDINATE_TYPE>
1 __ 5 __ 255

$$$$
5281519
 OpenBabel02201912233D

 39 39  0  0  0  0  0  0  0  0999 V2000
   -2.1276    0.8328    0.2609 C   0  0  0  0  0  0  0  0  0  0  0  0
   -2.1129   -0.3688   -0.6978 C   0  0  0  0  0  0  0  0  0  0  0  0
   -1.1377    1.9970   -0.0246 C   0  0  0  0  0  0  0  0  0  0  0  0
   -1.5505   -1.6645   -0.0928 C   0  0  0  0  0  0  0  0  0  0  0  0
    0.2897    1.7246    0.4128 C   0  0  0  0  0  0  0  0  0  0  0  0
    2.2794   -1.1160    0.0994 C   0  0  0  0  0  0  0  0  0  0  0  0
    2.4384    0.4244   -0.0743 C   0  0  0  0  0  0  0  0  0  0  0  0
    0.8996   -1.5332    0.5858 C   0  0  0  0  0  0  0  0  0  0  0  0
   -2.6016   -0.2992   -1.9637 C   0  0  0  0  0  0  0  0  0  0  0  0
   -0.0698   -1.7352   -0.3330 C   0  0  0  0  0  0  0  0  0  0  0  0
    1.1379    1.1027   -0.4334 C   0  0  0  0  0  0  0  0  0  0  0  0
    0.6082    2.0951    1.8370 C   0  0  0  0  0  0  0  0  0  0  0  0
    0.6372   -1.4664    2.0609 C   0  0  0  0  0  0  0  0  0  0  0  0
   -2.5720   -1.4361   -2.9603 C   0  0  0  0  0  0  0  0  0  0  0  0
   -3.2208    0.9539   -2.5332 C   0  0  0  0  0  0  0  0  0  0  0  0
   -3.1442    1.2473    0.2570 H   0  0  0  0  0  0  0  0  0  0  0  0
   -1.9869    0.4838    1.2922 H   0  0  0  0  0  0  0  0  0  0  0  0
   -1.1556    2.2766   -1.0822 H   0  0  0  0  0  0  0  0  0  0  0  0
   -1.4953    2.8852    0.5141 H   0  0  0  0  0  0  0  0  0  0  0  0
   -1.8040   -1.7130    0.9708 H   0  0  0  0  0  0  0  0  0  0  0  0
   -2.0250   -2.5490   -0.5249 H   0  0  0  0  0  0  0  0  0  0  0  0
    3.0551   -1.4936    0.7738 H   0  0  0  0  0  0  0  0  0  0  0  0
    2.4829   -1.5927   -0.8711 H   0  0  0  0  0  0  0  0  0  0  0  0
    2.8796    0.8462    0.8326 H   0  0  0  0  0  0  0  0  0  0  0  0
    3.1670    0.6190   -0.8713 H   0  0  0  0  0  0  0  0  0  0  0  0
    0.2081   -1.7539   -1.3865 H   0  0  0  0  0  0  0  0  0  0  0  0
    0.7906    0.8919   -1.4445 H   0  0  0  0  0  0  0  0  0  0  0  0
    0.7201    3.1811    1.9200 H   0  0  0  0  0  0  0  0  0  0  0  0
   -0.1986    1.7862    2.5098 H   0  0  0  0  0  0  0  0  0  0  0  0
    1.5258    1.6389    2.2119 H   0  0  0  0  0  0  0  0  0  0  0  0
    1.5663   -1.5430    2.6342 H   0  0  0  0  0  0  0  0  0  0  0  0
    0.1474   -0.5298    2.3369 H   0  0  0  0  0  0  0  0  0  0  0  0
   -0.0066   -2.2919    2.3833 H   0  0  0  0  0  0  0  0  0  0  0  0
   -3.5936   -1.7282   -3.2257 H   0  0  0  0  0  0  0  0  0  0  0  0
   -2.0566   -1.1161   -3.8727 H   0  0  0  0  0  0  0  0  0  0  0  0
   -2.0545   -2.3300   -2.6082 H   0  0  0  0  0  0  0  0  0  0  0  0
   -3.9742    1.3713   -1.8584 H   0  0  0  0  0  0  0  0  0  0  0  0
   -2.4560    1.7063   -2.7435 H   0  0  0  0  0  0  0  0  0  0  0  0
   -3.7326    0.7480   -3.4810 H   0  0  0  0  0  0  0  0  0  0  0  0
  1  2  1  0  0  0  0
  1  3  1  0  0  0  0
  1 16  1  0  0  0  0
  1 17  1  0  0  0  0
  2  4  1  0  0  0  0
  2  9  2  0  0  0  0
  3  5  1  0  0  0  0
  3 18  1  0  0  0  0
  3 19  1  0  0  0  0
  4 10  1  0  0  0  0
  4 20  1  0  0  0  0
  4 21  1  0  0  0  0
  5 11  2  0  0  0  0
  5 12  1  0  0  0  0
  6  7  1  0  0  0  0
  6  8  1  0  0  0  0
  6 22  1  0  0  0  0
  6 23  1  0  0  0  0
  7 11  1  0  0  0  0
  7 24  1  0  0  0  0
  7 25  1  0  0  0  0
  8 10  2  0  0  0  0
  8 13  1  0  0  0  0
  9 14  1  0  0  0  0
  9 15  1  0  0  0  0
 10 26  1  0  0  0  0
 11 27  1  0  0  0  0
 12 28  1  0  0  0  0
 12 29  1  0  0  0  0
 12 30  1  0  0  0  0
 13 31  1  0  0  0  0
 13 32  1  0  0  0  0
 13 33  1  0  0  0  0
 14 34  1  0  0  0  0
 14 35  1  0  0  0  0
 14 36  1  0  0  0  0
 15 37  1  0  0  0  0
 15 38  1  0  0  0  0
 15 39  1  0  0  0  0
M  END
> <PUBCHEM_COMPOUND_CID>
5281519

> <PUBCHEM_COMPOUND_CANONICALIZED>
1

> <PUBCHEM_CACTVS_COMPLEXITY>
296

> <PUBCHEM_CACTVS_HBOND_ACCEPTOR>
0

> <PUBCHEM_CACTVS_HBOND_DONOR>
0

> <PUBCHEM_CACTVS_ROTATABLE_BOND>
0

> <PUBCHEM_CACTVS_SUBSKEYS>
AAADceBwAAAAAAAAAAAAAAAAAAAAAAAAAAAAAAAAAAAAAACAAAAAGAAAAAAADACAAAACAAAAAACAAiBCAAAAAAAgAAAACAAAAAgAAAIAAQAAAAAAgAAIAAMAgAAAAAAAAAAAAAAAAAAAAAAAAAAAAAAAAA==

> <PUBCHEM_IUPAC_OPENEYE_NAME>
(1~{E},5~{E})-8-isopropylidene-1,5-dimethyl-cyclodeca-1,5-diene

> <PUBCHEM_IUPAC_CAS_NAME>
(1~{E},5~{E})-1,5-dimethyl-8-propan-2-ylidenecyclodeca-1,5-diene

> <PUBCHEM_IUPAC_NAME>
(1~{E},5~{E})-1,5-dimethyl-8-propan-2-ylidenecyclodeca-1,5-diene

> <PUBCHEM_IUPAC_SYSTEMATIC_NAME>
(1~{E},5~{E})-1,5-dimethyl-8-propan-2-ylidene-cyclodeca-1,5-diene

> <PUBCHEM_IUPAC_TRADITIONAL_NAME>
(1~{E},5~{E})-8-isopropylidene-1,5-dimethyl-cyclodeca-1,5-diene

> <PUBCHEM_IUPAC_INCHI>
InChI=1S/C15H24/c1-12(2)15-10-8-13(3)6-5-7-14(4)9-11-15/h6,9H,5,7-8,10-11H2,1-4H3/b13-6+,14-9+

> <PUBCHEM_IUPAC_INCHIKEY>
GXEGJTGWYVZSNR-SJRHNVSNSA-N

> <PUBCHEM_XLOGP3_AA>
4.1

> <PUBCHEM_EXACT_MASS>
204.188

> <PUBCHEM_MOLECULAR_FORMULA>
C15H24

> <PUBCHEM_MOLECULAR_WEIGHT>
204.357

> <PUBCHEM_OPENEYE_CAN_SMILES>
CC1=CCCC(=CCC(=C(C)C)CC1)C

> <PUBCHEM_OPENEYE_ISO_SMILES>
C/C/1=C\CC/C(=C/CC(=C(C)C)CC1)/C

> <PUBCHEM_CACTVS_TPSA>
0

> <PUBCHEM_MONOISOTOPIC_WEIGHT>
204.188

> <PUBCHEM_TOTAL_CHARGE>
0

> <PUBCHEM_HEAVY_ATOM_COUNT>
15

> <PUBCHEM_ATOM_DEF_STEREO_COUNT>
0

> <PUBCHEM_ATOM_UDEF_STEREO_COUNT>
0

> <PUBCHEM_BOND_DEF_STEREO_COUNT>
2

> <PUBCHEM_BOND_UDEF_STEREO_COUNT>
0

> <PUBCHEM_ISOTOPIC_ATOM_COUNT>
0

> <PUBCHEM_COMPONENT_COUNT>
1

> <PUBCHEM_CACTVS_TAUTO_COUNT>
1

> <PUBCHEM_COORDINATE_TYPE>
1 __ 5 __ 255

$$$$
5373727
 OpenBabel02201912233D

 39 39  0  0  1  0  0  0  0  0999 V2000
   -1.1843   -1.3587    0.6718 C   0  0  3  0  0  0  0  0  0  0  0  0
   -1.0314   -0.8496    2.1351 C   0  0  0  0  0  0  0  0  0  0  0  0
    0.0817   -1.9263   -0.0421 C   0  0  0  0  0  0  0  0  0  0  0  0
    1.4675   -1.4074    0.3802 C   0  0  0  0  0  0  0  0  0  0  0  0
   -1.9206   -0.4380   -0.2926 C   0  0  0  0  0  0  0  0  0  0  0  0
   -2.3845   -0.4694    2.7631 C   0  0  0  0  0  0  0  0  0  0  0  0
   -0.3618   -1.8578    3.0825 C   0  0  0  0  0  0  0  0  0  0  0  0
    2.1931   -0.5780   -0.6535 C   0  0  0  0  0  0  0  0  0  0  0  0
   -1.9016    0.8896   -0.4741 C   0  0  0  0  0  0  0  0  0  0  0  0
    1.4354    1.6950    0.2348 C   0  0  0  0  0  0  0  0  0  0  0  0
    2.1808    0.7676   -0.6848 C   0  0  0  0  0  0  0  0  0  0  0  0
    0.1917    2.2857   -0.4416 C   0  0  0  0  0  0  0  0  0  0  0  0
   -1.1085    1.8858    0.2109 C   0  0  0  0  0  0  0  0  0  0  0  0
    3.0162   -1.3565   -1.6481 C   0  0  0  0  0  0  0  0  0  0  0  0
   -1.5675    2.5161    1.3079 C   0  0  0  0  0  0  0  0  0  0  0  0
   -1.8625   -2.2238    0.7601 H   0  0  0  0  0  0  0  0  0  0  0  0
   -0.4070    0.0466    2.1281 H   0  0  0  0  0  0  0  0  0  0  0  0
   -0.0319   -1.8425   -1.1327 H   0  0  0  0  0  0  0  0  0  0  0  0
    0.0813   -3.0098    0.1456 H   0  0  0  0  0  0  0  0  0  0  0  0
    2.0956   -2.2848    0.5924 H   0  0  0  0  0  0  0  0  0  0  0  0
    1.4457   -0.8727    1.3290 H   0  0  0  0  0  0  0  0  0  0  0  0
   -2.5798   -0.9870   -0.9714 H   0  0  0  0  0  0  0  0  0  0  0  0
   -2.9489   -1.3575    3.0659 H   0  0  0  0  0  0  0  0  0  0  0  0
    0.5078   -2.3532    2.6484 H   0  0  0  0  0  0  0  0  0  0  0  0
   -0.0202   -1.3380    3.9859 H   0  0  0  0  0  0  0  0  0  0  0  0
   -1.0582   -2.6428    3.3940 H   0  0  0  0  0  0  0  0  0  0  0  0
   -2.2225    0.1464    3.6551 H   0  0  0  0  0  0  0  0  0  0  0  0
   -3.0278    0.0966    2.0867 H   0  0  0  0  0  0  0  0  0  0  0  0
   -2.5212    1.3024   -1.2714 H   0  0  0  0  0  0  0  0  0  0  0  0
    2.1200    2.5149    0.4880 H   0  0  0  0  0  0  0  0  0  0  0  0
    1.1993    1.2264    1.1926 H   0  0  0  0  0  0  0  0  0  0  0  0
    2.7629    1.2768   -1.4526 H   0  0  0  0  0  0  0  0  0  0  0  0
    0.1618    2.0369   -1.5117 H   0  0  0  0  0  0  0  0  0  0  0  0
    0.2685    3.3799   -0.4073 H   0  0  0  0  0  0  0  0  0  0  0  0
    3.7480   -1.9844   -1.1284 H   0  0  0  0  0  0  0  0  0  0  0  0
    2.3731   -1.9996   -2.2563 H   0  0  0  0  0  0  0  0  0  0  0  0
    3.5742   -0.7017   -2.3262 H   0  0  0  0  0  0  0  0  0  0  0  0
   -0.9840    3.2829    1.8028 H   0  0  0  0  0  0  0  0  0  0  0  0
   -2.5362    2.2830    1.7371 H   0  0  0  0  0  0  0  0  0  0  0  0
  1  2  1  0  0  0  0
  1  3  1  0  0  0  0
  1  5  1  0  0  0  0
  1 16  1  0  0  0  0
  2  6  1  0  0  0  0
  2  7  1  0  0  0  0
  2 17  1  0  0  0  0
  3  4  1  0  0  0  0
  3 18  1  0  0  0  0
  3 19  1  0  0  0  0
  4  8  1  0  0  0  0
  4 20  1  0  0  0  0
  4 21  1  0  0  0  0
  5  9  2  0  0  0  0
  5 22  1  0  0  0  0
  6 23  1  0  0  0  0
  6 27  1  0  0  0  0
  6 28  1  0  0  0  0
  7 24  1  0  0  0  0
  7 25  1  0  0  0  0
  7 26  1  0  0  0  0
  8 11  2  0  0  0  0
  8 14  1  0  0  0  0
  9 13  1  0  0  0  0
  9 29  1  0  0  0  0
 10 11  1  0  0  0  0
 10 12  1  0  0  0  0
 10 30  1  0  0  0  0
 10 31  1  0  0  0  0
 11 32  1  0  0  0  0
 12 13  1  0  0  0  0
 12 33  1  0  0  0  0
 12 34  1  0  0  0  0
 13 15  2  0  0  0  0
 14 35  1  0  0  0  0
 14 36  1  0  0  0  0
 14 37  1  0  0  0  0
 15 38  1  0  0  0  0
 15 39  1  0  0  0  0
M  END
> <PUBCHEM_COMPOUND_CID>
5373727

> <PUBCHEM_COMPOUND_CANONICALIZED>
1

> <PUBCHEM_CACTVS_COMPLEXITY>
266

> <PUBCHEM_CACTVS_HBOND_ACCEPTOR>
0

> <PUBCHEM_CACTVS_HBOND_DONOR>
0

> <PUBCHEM_CACTVS_ROTATABLE_BOND>
1

> <PUBCHEM_CACTVS_SUBSKEYS>
AAADceBwAAAAAAAAAAAAAAAAAAAAAAAAAAAAAAAAAAAAAACAAAAAGAAAAAAADQCAAAACAAAAAACAAiBCAAAAAAAgAAAICAAAAAgIAAIAAQAAAAAAgAAIgAMAgEAOgAAAAAAAAAAAAAAAAAAAAAAAAAAAAA==

> <PUBCHEM_IUPAC_OPENEYE_NAME>
(1~{Z},6~{Z})-8-isopropyl-1-methyl-5-methylene-cyclodeca-1,6-diene

> <PUBCHEM_IUPAC_CAS_NAME>
(1~{Z},6~{Z})-1-methyl-5-methylene-8-propan-2-ylcyclodeca-1,6-diene

> <PUBCHEM_IUPAC_NAME>
(1~{Z},6~{Z})-1-methyl-5-methylidene-8-propan-2-ylcyclodeca-1,6-diene

> <PUBCHEM_IUPAC_SYSTEMATIC_NAME>
(1~{Z},6~{Z})-1-methyl-5-methylidene-8-propan-2-yl-cyclodeca-1,6-diene

> <PUBCHEM_IUPAC_TRADITIONAL_NAME>
(1~{Z},6~{Z})-8-isopropyl-1-methyl-5-methylene-cyclodeca-1,6-diene

> <PUBCHEM_IUPAC_INCHI>
InChI=1S/C15H24/c1-12(2)15-10-8-13(3)6-5-7-14(4)9-11-15/h7-8,10,12,15H,3,5-6,9,11H2,1-2,4H3/b10-8-,14-7-

> <PUBCHEM_IUPAC_INCHIKEY>
GAIBLDCXCZKKJE-BZXLUOIMSA-N

> <PUBCHEM_XLOGP3_AA>
4.7

> <PUBCHEM_EXACT_MASS>
204.188

> <PUBCHEM_MOLECULAR_FORMULA>
C15H24

> <PUBCHEM_MOLECULAR_WEIGHT>
204.357

> <PUBCHEM_OPENEYE_CAN_SMILES>
CC1=CCCC(=C)C=CC(CC1)C(C)C

> <PUBCHEM_OPENEYE_ISO_SMILES>
C/C/1=C/CCC(=C)/C=C\C(CC1)C(C)C

> <PUBCHEM_CACTVS_TPSA>
0

> <PUBCHEM_MONOISOTOPIC_WEIGHT>
204.188

> <PUBCHEM_TOTAL_CHARGE>
0

> <PUBCHEM_HEAVY_ATOM_COUNT>
15

> <PUBCHEM_ATOM_DEF_STEREO_COUNT>
0

> <PUBCHEM_ATOM_UDEF_STEREO_COUNT>
1

> <PUBCHEM_BOND_DEF_STEREO_COUNT>
2

> <PUBCHEM_BOND_UDEF_STEREO_COUNT>
0

> <PUBCHEM_ISOTOPIC_ATOM_COUNT>
0

> <PUBCHEM_COMPONENT_COUNT>
1

> <PUBCHEM_CACTVS_TAUTO_COUNT>
-1

> <PUBCHEM_COORDINATE_TYPE>
1 __ 5 __ 255

> <PUBCHEM_BONDANNOTATIONS>
1  16  3

$$$$
564934
 OpenBabel02201912233D

 39 42  0  0  1  0  0  0  0  0999 V2000
   -0.9260   -0.9381   -0.3566 C   0  0  3  0  0  0  0  0  0  0  0  0
   -0.7268    0.3235   -1.1437 C   0  0  3  0  0  0  0  0  0  0  0  0
   -1.9560    0.1652   -0.3192 C   0  0  3  0  0  0  0  0  0  0  0  0
   -0.1557   -0.8488    0.9602 C   0  0  3  0  0  0  0  0  0  0  0  0
   -0.2031    0.7429    1.0380 C   0  0  3  0  0  0  0  0  0  0  0  0
    0.2117    1.2565   -0.4004 C   0  0  3  0  0  0  0  0  0  0  0  0
   -1.7556    1.0028    0.9341 C   0  0  0  0  0  0  0  0  0  0  0  0
    1.6873    1.2617   -0.8675 C   0  0  0  0  0  0  0  0  0  0  0  0
   -1.0642   -2.2029   -1.1195 C   0  0  0  0  0  0  0  0  0  0  0  0
    1.2323   -1.4965    0.9760 C   0  0  0  0  0  0  0  0  0  0  0  0
   -0.9503   -1.5339    2.1040 C   0  0  0  0  0  0  0  0  0  0  0  0
    2.6241    0.3163   -0.0983 C   0  0  0  0  0  0  0  0  0  0  0  0
    2.2257   -1.1441   -0.1153 C   0  0  0  0  0  0  0  0  0  0  0  0
    2.2490    2.6909   -0.6521 C   0  0  0  0  0  0  0  0  0  0  0  0
    1.7870    0.9870   -2.3884 C   0  0  0  0  0  0  0  0  0  0  0  0
   -0.8343    0.4142   -2.2109 H   0  0  0  0  0  0  0  0  0  0  0  0
   -2.9362    0.0753   -0.7422 H   0  0  0  0  0  0  0  0  0  0  0  0
    0.2912    1.2141    1.8892 H   0  0  0  0  0  0  0  0  0  0  0  0
   -0.1793    2.2761   -0.5354 H   0  0  0  0  0  0  0  0  0  0  0  0
   -2.3292    0.6515    1.7935 H   0  0  0  0  0  0  0  0  0  0  0  0
   -1.9941    2.0577    0.7626 H   0  0  0  0  0  0  0  0  0  0  0  0
   -0.2764   -2.2710   -1.8793 H   0  0  0  0  0  0  0  0  0  0  0  0
   -0.9731   -3.0787   -0.4715 H   0  0  0  0  0  0  0  0  0  0  0  0
   -2.0261   -2.2566   -1.6364 H   0  0  0  0  0  0  0  0  0  0  0  0
    1.6995   -1.2817    1.9474 H   0  0  0  0  0  0  0  0  0  0  0  0
    1.1165   -2.5882    0.9422 H   0  0  0  0  0  0  0  0  0  0  0  0
   -0.8216   -2.6229    2.0738 H   0  0  0  0  0  0  0  0  0  0  0  0
   -0.6053   -1.1831    3.0823 H   0  0  0  0  0  0  0  0  0  0  0  0
   -2.0318   -1.3813    2.0421 H   0  0  0  0  0  0  0  0  0  0  0  0
    3.6273    0.3882   -0.5399 H   0  0  0  0  0  0  0  0  0  0  0  0
    2.7395    0.6551    0.9400 H   0  0  0  0  0  0  0  0  0  0  0  0
    1.8662   -1.4709   -1.0927 H   0  0  0  0  0  0  0  0  0  0  0  0
    3.1320   -1.7390    0.0746 H   0  0  0  0  0  0  0  0  0  0  0  0
    3.2806    2.7678   -1.0170 H   0  0  0  0  0  0  0  0  0  0  0  0
    1.6588    3.4391   -1.1941 H   0  0  0  0  0  0  0  0  0  0  0  0
    2.2471    2.9639    0.4085 H   0  0  0  0  0  0  0  0  0  0  0  0
    1.4303   -0.0126   -2.6569 H   0  0  0  0  0  0  0  0  0  0  0  0
    1.1952    1.7120   -2.9586 H   0  0  0  0  0  0  0  0  0  0  0  0
    2.8225    1.0582   -2.7379 H   0  0  0  0  0  0  0  0  0  0  0  0
  1  2  1  0  0  0  0
  1  3  1  0  0  0  0
  1  4  1  0  0  0  0
  1  9  1  0  0  0  0
  2  3  1  0  0  0  0
  2  6  1  0  0  0  0
  2 16  1  0  0  0  0
  3  7  1  0  0  0  0
  3 17  1  0  0  0  0
  4  5  1  0  0  0  0
  4 10  1  0  0  0  0
  4 11  1  0  0  0  0
  5  6  1  0  0  0  0
  5  7  1  0  0  0  0
  5 18  1  0  0  0  0
  6  8  1  0  0  0  0
  6 19  1  0  0  0  0
  7 20  1  0  0  0  0
  7 21  1  0  0  0  0
  8 12  1  0  0  0  0
  8 14  1  0  0  0  0
  8 15  1  0  0  0  0
  9 22  1  0  0  0  0
  9 23  1  0  0  0  0
  9 24  1  0  0  0  0
 10 13  1  0  0  0  0
 10 25  1  0  0  0  0
 10 26  1  0  0  0  0
 11 27  1  0  0  0  0
 11 28  1  0  0  0  0
 11 29  1  0  0  0  0
 12 13  1  0  0  0  0
 12 30  1  0  0  0  0
 12 31  1  0  0  0  0
 13 32  1  0  0  0  0
 13 33  1  0  0  0  0
 14 34  1  0  0  0  0
 14 35  1  0  0  0  0
 14 36  1  0  0  0  0
 15 37  1  0  0  0  0
 15 38  1  0  0  0  0
 15 39  1  0  0  0  0
M  END
> <PUBCHEM_COMPOUND_CID>
564934

> <PUBCHEM_COMPOUND_CANONICALIZED>
1

> <PUBCHEM_CACTVS_COMPLEXITY>
342

> <PUBCHEM_CACTVS_HBOND_ACCEPTOR>
0

> <PUBCHEM_CACTVS_HBOND_DONOR>
0

> <PUBCHEM_CACTVS_ROTATABLE_BOND>
0

> <PUBCHEM_CACTVS_SUBSKEYS>
AAADceBwAAAAAAAAAAAAAAAAGAAAAYMGAAAAAAAABgAYAAAAAAAAGAAAAAAADwCAAAACAAAAAAAAAAAAAAAAAAAAAAAAAAAAAAAAAAIAAAAAAAAAAAAAAAEAgMAPgAAAAAAAAACAAAQAACAAAQAACAAAAA==

> <PUBCHEM_IUPAC_OPENEYE_NAME>
2,6,6,9-tetramethyltetracyclo[5.4.0.0^{2,9}.0^{8,10}]undecane

> <PUBCHEM_IUPAC_CAS_NAME>
2,6,6,9-tetramethyltetracyclo[5.4.0.0^{2,9}.0^{8,10}]undecane

> <PUBCHEM_IUPAC_NAME>
2,6,6,9-tetramethyltetracyclo[5.4.0.0^{2,9}.0^{8,10}]undecane

> <PUBCHEM_IUPAC_SYSTEMATIC_NAME>
2,6,6,9-tetramethyltetracyclo[5.4.0.0^{2,9}.0^{8,10}]undecane

> <PUBCHEM_IUPAC_TRADITIONAL_NAME>
2,6,6,9-tetramethyltetracyclo[5.4.0.0^{2,9}.0^{8,10}]undecane

> <PUBCHEM_IUPAC_INCHI>
InChI=1S/C15H24/c1-13(2)6-5-7-14(3)9-8-10-12(11(9)13)15(10,14)4/h9-12H,5-8H2,1-4H3

> <PUBCHEM_IUPAC_INCHIKEY>
WCEIQUQVIOGRBF-UHFFFAOYSA-N

> <PUBCHEM_XLOGP3_AA>
5

> <PUBCHEM_EXACT_MASS>
204.188

> <PUBCHEM_MOLECULAR_FORMULA>
C15H24

> <PUBCHEM_MOLECULAR_WEIGHT>
204.357

> <PUBCHEM_OPENEYE_CAN_SMILES>
CC1(CCCC2(C3C1C4C2(C4C3)C)C)C

> <PUBCHEM_OPENEYE_ISO_SMILES>
CC1(CCCC2(C3C1C4C2(C4C3)C)C)C

> <PUBCHEM_CACTVS_TPSA>
0

> <PUBCHEM_MONOISOTOPIC_WEIGHT>
204.188

> <PUBCHEM_TOTAL_CHARGE>
0

> <PUBCHEM_HEAVY_ATOM_COUNT>
15

> <PUBCHEM_ATOM_DEF_STEREO_COUNT>
0

> <PUBCHEM_ATOM_UDEF_STEREO_COUNT>
6

> <PUBCHEM_BOND_DEF_STEREO_COUNT>
0

> <PUBCHEM_BOND_UDEF_STEREO_COUNT>
0

> <PUBCHEM_ISOTOPIC_ATOM_COUNT>
0

> <PUBCHEM_COMPONENT_COUNT>
1

> <PUBCHEM_CACTVS_TAUTO_COUNT>
-1

> <PUBCHEM_COORDINATE_TYPE>
1 __ 5 __ 255

> <PUBCHEM_BONDANNOTATIONS>
1  2  3 __ 2  3  3 __ 3  7  3 __ 4  11  3 __ 5  7  3 __ 6  8  3

$$$$
289151
 OpenBabel02201912233D

 39 41  0  0  1  0  0  0  0  0999 V2000
    0.1219    1.2136   -0.4389 C   0  0  3  0  0  0  0  0  0  0  0  0
   -0.1927    0.6575    0.9692 C   0  0  3  0  0  0  0  0  0  0  0  0
   -0.1840   -0.9073    0.7954 C   0  0  3  0  0  0  0  0  0  0  0  0
   -1.0107    0.3963   -1.0936 C   0  0  3  0  0  0  0  0  0  0  0  0
    1.5824    1.1599   -0.9771 C   0  0  0  0  0  0  0  0  0  0  0  0
   -1.6467    1.1842    1.1017 C   0  0  0  0  0  0  0  0  0  0  0  0
   -0.7073   -1.0102   -0.6293 C   0  0  0  0  0  0  0  0  0  0  0  0
   -2.2401    0.8875   -0.2913 C   0  0  0  0  0  0  0  0  0  0  0  0
    1.2180   -1.5252    0.9733 C   0  0  0  0  0  0  0  0  0  0  0  0
    2.5785    0.2603   -0.2063 C   0  0  0  0  0  0  0  0  0  0  0  0
    2.2521   -1.2152   -0.1004 C   0  0  0  0  0  0  0  0  0  0  0  0
   -1.1219   -1.6143    1.7986 C   0  0  0  0  0  0  0  0  0  0  0  0
    2.1629    2.5990   -0.8242 C   0  0  0  0  0  0  0  0  0  0  0  0
    1.6083    0.8422   -2.4859 C   0  0  0  0  0  0  0  0  0  0  0  0
   -0.7978   -2.1108   -1.3851 C   0  0  0  0  0  0  0  0  0  0  0  0
   -0.1792    2.2720   -0.4959 H   0  0  0  0  0  0  0  0  0  0  0  0
    0.4548    1.0277    1.7682 H   0  0  0  0  0  0  0  0  0  0  0  0
   -1.1313    0.5128   -2.1726 H   0  0  0  0  0  0  0  0  0  0  0  0
   -2.2200    0.7375    1.9169 H   0  0  0  0  0  0  0  0  0  0  0  0
   -1.6415    2.2672    1.2795 H   0  0  0  0  0  0  0  0  0  0  0  0
   -3.0407    0.1413   -0.2432 H   0  0  0  0  0  0  0  0  0  0  0  0
   -2.6546    1.8042   -0.7254 H   0  0  0  0  0  0  0  0  0  0  0  0
    1.6178   -1.2229    1.9511 H   0  0  0  0  0  0  0  0  0  0  0  0
    1.1314   -2.6196    1.0184 H   0  0  0  0  0  0  0  0  0  0  0  0
    3.5557    0.3345   -0.7058 H   0  0  0  0  0  0  0  0  0  0  0  0
    2.7410    0.6607    0.8016 H   0  0  0  0  0  0  0  0  0  0  0  0
    1.9677   -1.6330   -1.0704 H   0  0  0  0  0  0  0  0  0  0  0  0
    3.1735   -1.7424    0.1808 H   0  0  0  0  0  0  0  0  0  0  0  0
   -1.0142   -2.7039    1.7471 H   0  0  0  0  0  0  0  0  0  0  0  0
   -0.8939   -1.3073    2.8255 H   0  0  0  0  0  0  0  0  0  0  0  0
   -2.1813   -1.4113    1.6074 H   0  0  0  0  0  0  0  0  0  0  0  0
    3.1915    2.6581   -1.1951 H   0  0  0  0  0  0  0  0  0  0  0  0
    1.5719    3.3347   -1.3821 H   0  0  0  0  0  0  0  0  0  0  0  0
    2.1690    2.9066    0.2294 H   0  0  0  0  0  0  0  0  0  0  0  0
    1.2346   -0.1604   -2.7072 H   0  0  0  0  0  0  0  0  0  0  0  0
    0.9965    1.5571   -3.0502 H   0  0  0  0  0  0  0  0  0  0  0  0
    2.6273    0.8995   -2.8873 H   0  0  0  0  0  0  0  0  0  0  0  0
   -0.5061   -3.0842   -1.0027 H   0  0  0  0  0  0  0  0  0  0  0  0
   -1.1317   -2.0601   -2.4172 H   0  0  0  0  0  0  0  0  0  0  0  0
  1  2  1  0  0  0  0
  1  4  1  0  0  0  0
  1  5  1  0  0  0  0
  1 16  1  0  0  0  0
  2  3  1  0  0  0  0
  2  6  1  0  0  0  0
  2 17  1  0  0  0  0
  3  7  1  0  0  0  0
  3  9  1  0  0  0  0
  3 12  1  0  0  0  0
  4  7  1  0  0  0  0
  4  8  1  0  0  0  0
  4 18  1  0  0  0  0
  5 10  1  0  0  0  0
  5 13  1  0  0  0  0
  5 14  1  0  0  0  0
  6  8  1  0  0  0  0
  6 19  1  0  0  0  0
  6 20  1  0  0  0  0
  7 15  2  0  0  0  0
  8 21  1  0  0  0  0
  8 22  1  0  0  0  0
  9 11  1  0  0  0  0
  9 23  1  0  0  0  0
  9 24  1  0  0  0  0
 10 11  1  0  0  0  0
 10 25  1  0  0  0  0
 10 26  1  0  0  0  0
 11 27  1  0  0  0  0
 11 28  1  0  0  0  0
 12 29  1  0  0  0  0
 12 30  1  0  0  0  0
 12 31  1  0  0  0  0
 13 32  1  0  0  0  0
 13 33  1  0  0  0  0
 13 34  1  0  0  0  0
 14 35  1  0  0  0  0
 14 36  1  0  0  0  0
 14 37  1  0  0  0  0
 15 38  1  0  0  0  0
 15 39  1  0  0  0  0
M  END
> <PUBCHEM_COMPOUND_CID>
289151

> <PUBCHEM_COMPOUND_CANONICALIZED>
1

> <PUBCHEM_CACTVS_COMPLEXITY>
312

> <PUBCHEM_CACTVS_HBOND_ACCEPTOR>
0

> <PUBCHEM_CACTVS_HBOND_DONOR>
0

> <PUBCHEM_CACTVS_ROTATABLE_BOND>
0

> <PUBCHEM_CACTVS_SUBSKEYS>
AAADceBwAAAAAAAAAAAAAAAAAAAAAYMAAAAwAAAABgAYAAAAAAAAGAAAAAAADwCAAAACAAAAAACAAgBCAAAAAAAgAAAAAAAAAAgAAAIAAQAAAAAAgAAAAAEAgMAPgAAAAAAAAAAAAAQAACAAAQAACAAAAA==

> <PUBCHEM_IUPAC_OPENEYE_NAME>
3,3,7-trimethyl-8-methylene-tricyclo[5.4.0.0^{2,9}]undecane

> <PUBCHEM_IUPAC_CAS_NAME>
3,3,7-trimethyl-8-methylenetricyclo[5.4.0.0^{2,9}]undecane

> <PUBCHEM_IUPAC_NAME>
3,3,7-trimethyl-8-methylidenetricyclo[5.4.0.0^{2,9}]undecane

> <PUBCHEM_IUPAC_SYSTEMATIC_NAME>
3,3,7-trimethyl-8-methylidene-tricyclo[5.4.0.0^{2,9}]undecane

> <PUBCHEM_IUPAC_TRADITIONAL_NAME>
3,3,7-trimethyl-8-methylene-tricyclo[5.4.0.0^{2,9}]undecane

> <PUBCHEM_IUPAC_INCHI>
InChI=1S/C15H24/c1-10-11-6-7-12-13(11)14(2,3)8-5-9-15(10,12)4/h11-13H,1,5-9H2,2-4H3

> <PUBCHEM_IUPAC_INCHIKEY>
PDSNLYSELAIEBU-UHFFFAOYSA-N

> <PUBCHEM_XLOGP3_AA>
5.1

> <PUBCHEM_EXACT_MASS>
204.188

> <PUBCHEM_MOLECULAR_FORMULA>
C15H24

> <PUBCHEM_MOLECULAR_WEIGHT>
204.357

> <PUBCHEM_OPENEYE_CAN_SMILES>
CC1(CCCC2(C3C1C(C2=C)CC3)C)C

> <PUBCHEM_OPENEYE_ISO_SMILES>
CC1(CCCC2(C3C1C(C2=C)CC3)C)C

> <PUBCHEM_CACTVS_TPSA>
0

> <PUBCHEM_MONOISOTOPIC_WEIGHT>
204.188

> <PUBCHEM_TOTAL_CHARGE>
0

> <PUBCHEM_HEAVY_ATOM_COUNT>
15

> <PUBCHEM_ATOM_DEF_STEREO_COUNT>
0

> <PUBCHEM_ATOM_UDEF_STEREO_COUNT>
4

> <PUBCHEM_BOND_DEF_STEREO_COUNT>
0

> <PUBCHEM_BOND_UDEF_STEREO_COUNT>
0

> <PUBCHEM_ISOTOPIC_ATOM_COUNT>
0

> <PUBCHEM_COMPONENT_COUNT>
1

> <PUBCHEM_CACTVS_TAUTO_COUNT>
-1

> <PUBCHEM_COORDINATE_TYPE>
1 __ 5 __ 255

> <PUBCHEM_BONDANNOTATIONS>
1  5  3 __ 2  6  3 __ 3  12  3 __ 4  8  3

$$$$
5284507
 OpenBabel02201912233D

 42 41  0  0  1  0  0  0  0  0999 V2000
    2.4455    2.4036    2.1717 O   0  0  0  0  0  0  0  0  0  0  0  0
    1.7515    1.3304    1.5348 C   0  0  3  0  0  0  0  0  0  0  0  0
    2.4800    0.9717    0.2223 C   0  0  0  0  0  0  0  0  0  0  0  0
    2.5299    2.1249   -0.7939 C   0  0  0  0  0  0  0  0  0  0  0  0
    3.1312    1.6721   -2.0963 C   0  0  0  0  0  0  0  0  0  0  0  0
    3.9054    2.3892   -2.9369 C   0  0  0  0  0  0  0  0  0  0  0  0
    4.3906    1.8653   -4.2816 C   0  0  0  0  0  0  0  0  0  0  0  0
    1.7610    0.1334    2.4919 C   0  0  0  0  0  0  0  0  0  0  0  0
    0.3150    1.7352    1.2828 C   0  0  0  0  0  0  0  0  0  0  0  0
    3.9678    0.4370   -4.6645 C   0  0  0  0  0  0  0  0  0  0  0  0
    4.3243    3.8085   -2.6419 C   0  0  0  0  0  0  0  0  0  0  0  0
    4.5129    0.0486   -6.0125 C   0  0  0  0  0  0  0  0  0  0  0  0
    5.2785   -1.0255   -6.2825 C   0  0  0  0  0  0  0  0  0  0  0  0
   -0.2374    2.9224    1.5726 C   0  0  0  0  0  0  0  0  0  0  0  0
    5.7912   -1.2777   -7.6730 C   0  0  0  0  0  0  0  0  0  0  0  0
    5.6854   -2.0345   -5.2442 C   0  0  0  0  0  0  0  0  0  0  0  0
    3.5123    0.6716    0.4508 H   0  0  0  0  0  0  0  0  0  0  0  0
    1.9924    0.0999   -0.2361 H   0  0  0  0  0  0  0  0  0  0  0  0
    1.5136    2.4695   -1.0157 H   0  0  0  0  0  0  0  0  0  0  0  0
    3.0775    2.9690   -0.3644 H   0  0  0  0  0  0  0  0  0  0  0  0
    2.8365    0.6642   -2.3826 H   0  0  0  0  0  0  0  0  0  0  0  0
    4.0283    2.5556   -5.0577 H   0  0  0  0  0  0  0  0  0  0  0  0
    5.4867    1.9219   -4.2959 H   0  0  0  0  0  0  0  0  0  0  0  0
    1.1162    0.3168    3.3607 H   0  0  0  0  0  0  0  0  0  0  0  0
    1.4121   -0.7830    2.0025 H   0  0  0  0  0  0  0  0  0  0  0  0
    2.7664   -0.0486    2.8887 H   0  0  0  0  0  0  0  0  0  0  0  0
   -0.3153    0.9855    0.8049 H   0  0  0  0  0  0  0  0  0  0  0  0
    4.3049   -0.2605   -3.8908 H   0  0  0  0  0  0  0  0  0  0  0  0
    2.8741    0.3699   -4.7091 H   0  0  0  0  0  0  0  0  0  0  0  0
    3.4957    4.4953   -2.8385 H   0  0  0  0  0  0  0  0  0  0  0  0
    4.6547    3.9271   -1.6062 H   0  0  0  0  0  0  0  0  0  0  0  0
    5.1664    4.1110   -3.2733 H   0  0  0  0  0  0  0  0  0  0  0  0
    3.3548    2.1072    2.3415 H   0  0  0  0  0  0  0  0  0  0  0  0
    4.2361    0.7161   -6.8273 H   0  0  0  0  0  0  0  0  0  0  0  0
   -1.2770    3.1291    1.3460 H   0  0  0  0  0  0  0  0  0  0  0  0
    0.3423    3.7164    2.0403 H   0  0  0  0  0  0  0  0  0  0  0  0
    6.8848   -1.3282   -7.6660 H   0  0  0  0  0  0  0  0  0  0  0  0
    5.3981   -2.2235   -8.0587 H   0  0  0  0  0  0  0  0  0  0  0  0
    6.2975   -1.5663   -4.4667 H   0  0  0  0  0  0  0  0  0  0  0  0
    5.5024   -0.4838   -8.3697 H   0  0  0  0  0  0  0  0  0  0  0  0
    4.8047   -2.4935   -4.7830 H   0  0  0  0  0  0  0  0  0  0  0  0
    6.2774   -2.8432   -5.6853 H   0  0  0  0  0  0  0  0  0  0  0  0
  1  2  1  0  0  0  0
  1 33  1  0  0  0  0
  2  3  1  0  0  0  0
  2  8  1  0  0  0  0
  2  9  1  0  0  0  0
  3  4  1  0  0  0  0
  3 17  1  0  0  0  0
  3 18  1  0  0  0  0
  4  5  1  0  0  0  0
  4 19  1  0  0  0  0
  4 20  1  0  0  0  0
  5  6  2  0  0  0  0
  5 21  1  0  0  0  0
  6  7  1  0  0  0  0
  6 11  1  0  0  0  0
  7 10  1  0  0  0  0
  7 22  1  0  0  0  0
  7 23  1  0  0  0  0
  8 24  1  0  0  0  0
  8 25  1  0  0  0  0
  8 26  1  0  0  0  0
  9 14  2  0  0  0  0
  9 27  1  0  0  0  0
 10 12  1  0  0  0  0
 10 28  1  0  0  0  0
 10 29  1  0  0  0  0
 11 30  1  0  0  0  0
 11 31  1  0  0  0  0
 11 32  1  0  0  0  0
 12 13  2  0  0  0  0
 12 34  1  0  0  0  0
 13 15  1  0  0  0  0
 13 16  1  0  0  0  0
 14 35  1  0  0  0  0
 14 36  1  0  0  0  0
 15 37  1  0  0  0  0
 15 38  1  0  0  0  0
 15 40  1  0  0  0  0
 16 39  1  0  0  0  0
 16 41  1  0  0  0  0
 16 42  1  0  0  0  0
M  END
> <PUBCHEM_COMPOUND_CID>
5284507

> <PUBCHEM_COMPOUND_CANONICALIZED>
1

> <PUBCHEM_CACTVS_COMPLEXITY>
269

> <PUBCHEM_CACTVS_HBOND_ACCEPTOR>
1

> <PUBCHEM_CACTVS_HBOND_DONOR>
1

> <PUBCHEM_CACTVS_ROTATABLE_BOND>
7

> <PUBCHEM_CACTVS_SUBSKEYS>
AAADceBwIAAAAAAAAAAAAAAAAAAAAAAAAAAAAAAAAAAAAAAAAAAAGgAACAAADESAgAACAAAAAgCAAiBCAAAAAAAgAAAICAAAAAgABAIAAQAAQAAEgAAIEAIAAAAMAAAAAAAAAAAAAAAAAAAAAAAAAAAAAA==

> <PUBCHEM_IUPAC_OPENEYE_NAME>
(6~{E})-3,7,11-trimethyldodeca-1,6,10-trien-3-ol

> <PUBCHEM_IUPAC_CAS_NAME>
(6~{E})-3,7,11-trimethyl-3-dodeca-1,6,10-trienol

> <PUBCHEM_IUPAC_NAME>
(6~{E})-3,7,11-trimethyldodeca-1,6,10-trien-3-ol

> <PUBCHEM_IUPAC_SYSTEMATIC_NAME>
(6~{E})-3,7,11-trimethyldodeca-1,6,10-trien-3-ol

> <PUBCHEM_IUPAC_TRADITIONAL_NAME>
(6~{E})-3,7,11-trimethyldodeca-1,6,10-trien-3-ol

> <PUBCHEM_IUPAC_INCHI>
InChI=1S/C15H26O/c1-6-15(5,16)12-8-11-14(4)10-7-9-13(2)3/h6,9,11,16H,1,7-8,10,12H2,2-5H3/b14-11+

> <PUBCHEM_IUPAC_INCHIKEY>
FQTLCLSUCSAZDY-SDNWHVSQSA-N

> <PUBCHEM_XLOGP3_AA>
4.6

> <PUBCHEM_EXACT_MASS>
222.198

> <PUBCHEM_MOLECULAR_FORMULA>
C15H26O

> <PUBCHEM_MOLECULAR_WEIGHT>
222.372

> <PUBCHEM_OPENEYE_CAN_SMILES>
CC(=CCCC(=CCCC(C)(C=C)O)C)C

> <PUBCHEM_OPENEYE_ISO_SMILES>
CC(=CCC/C(=C/CCC(C)(C=C)O)/C)C

> <PUBCHEM_CACTVS_TPSA>
20.2

> <PUBCHEM_MONOISOTOPIC_WEIGHT>
222.198

> <PUBCHEM_TOTAL_CHARGE>
0

> <PUBCHEM_HEAVY_ATOM_COUNT>
16

> <PUBCHEM_ATOM_DEF_STEREO_COUNT>
0

> <PUBCHEM_ATOM_UDEF_STEREO_COUNT>
1

> <PUBCHEM_BOND_DEF_STEREO_COUNT>
1

> <PUBCHEM_BOND_UDEF_STEREO_COUNT>
0

> <PUBCHEM_ISOTOPIC_ATOM_COUNT>
0

> <PUBCHEM_COMPONENT_COUNT>
1

> <PUBCHEM_CACTVS_TAUTO_COUNT>
-1

> <PUBCHEM_COORDINATE_TYPE>
1 __ 5 __ 255

> <PUBCHEM_BONDANNOTATIONS>
2  1  3

$$$$
442402
 OpenBabel02201912233D

 39 41  0  0  1  0  0  0  0  0999 V2000
   -0.4354   -0.5484    0.6303 C   0  0  1  0  0  0  0  0  0  0  0  0
   -1.3585   -1.2384    1.7027 C   0  0  1  0  0  0  0  0  0  0  0  0
    0.7774   -1.4491    0.1974 C   0  0  1  0  0  0  0  0  0  0  0  0
   -1.8542   -1.0446    0.3142 C   0  0  0  0  0  0  0  0  0  0  0  0
   -0.1182    0.9935    0.8789 C   0  0  0  0  0  0  0  0  0  0  0  0
    1.7991   -0.7016   -0.6751 C   0  0  0  0  0  0  0  0  0  0  0  0
    1.1298    1.5216    0.0985 C   0  0  0  0  0  0  0  0  0  0  0  0
    1.4624   -1.9398    1.5093 C   0  0  0  0  0  0  0  0  0  0  0  0
   -0.8072   -2.4966    2.2924 C   0  0  0  0  0  0  0  0  0  0  0  0
    2.2950    0.5635   -0.0280 C   0  0  0  0  0  0  0  0  0  0  0  0
    0.3626   -2.6855   -0.6604 C   0  0  0  0  0  0  0  0  0  0  0  0
   -1.2652    1.9164    0.3900 C   0  0  0  0  0  0  0  0  0  0  0  0
    0.1195    1.2806    2.3882 C   0  0  0  0  0  0  0  0  0  0  0  0
    0.5082   -2.7689    2.2978 C   0  0  0  0  0  0  0  0  0  0  0  0
   -1.7339   -3.4577    2.9812 C   0  0  0  0  0  0  0  0  0  0  0  0
   -1.9018   -0.6441    2.4350 H   0  0  0  0  0  0  0  0  0  0  0  0
   -2.6566   -0.3277    0.1709 H   0  0  0  0  0  0  0  0  0  0  0  0
   -2.0352   -1.9123   -0.3063 H   0  0  0  0  0  0  0  0  0  0  0  0
    2.6487   -1.3585   -0.8991 H   0  0  0  0  0  0  0  0  0  0  0  0
    1.3410   -0.4541   -1.6448 H   0  0  0  0  0  0  0  0  0  0  0  0
    1.4940    2.4506    0.5589 H   0  0  0  0  0  0  0  0  0  0  0  0
    0.8394    1.7992   -0.9235 H   0  0  0  0  0  0  0  0  0  0  0  0
    2.3539   -2.5243    1.2683 H   0  0  0  0  0  0  0  0  0  0  0  0
    1.7814   -1.1061    2.1421 H   0  0  0  0  0  0  0  0  0  0  0  0
    3.0664    1.0093   -0.6667 H   0  0  0  0  0  0  0  0  0  0  0  0
    2.7712    0.3728    0.9378 H   0  0  0  0  0  0  0  0  0  0  0  0
   -0.4344   -3.2925   -0.2181 H   0  0  0  0  0  0  0  0  0  0  0  0
    0.0093   -2.3809   -1.6524 H   0  0  0  0  0  0  0  0  0  0  0  0
    1.2124   -3.3636   -0.8021 H   0  0  0  0  0  0  0  0  0  0  0  0
   -1.0474    2.9669    0.6282 H   0  0  0  0  0  0  0  0  0  0  0  0
   -1.3820    1.8612   -0.6994 H   0  0  0  0  0  0  0  0  0  0  0  0
   -2.2285    1.6792    0.8469 H   0  0  0  0  0  0  0  0  0  0  0  0
    1.1817    1.2341    2.6466 H   0  0  0  0  0  0  0  0  0  0  0  0
   -0.2347    2.2817    2.6629 H   0  0  0  0  0  0  0  0  0  0  0  0
   -0.3857    0.5885    3.0628 H   0  0  0  0  0  0  0  0  0  0  0  0
    0.9055   -3.6602    2.7899 H   0  0  0  0  0  0  0  0  0  0  0  0
   -2.0828   -4.2126    2.2691 H   0  0  0  0  0  0  0  0  0  0  0  0
   -1.2179   -3.9886    3.7952 H   0  0  0  0  0  0  0  0  0  0  0  0
   -2.5956   -2.9543    3.4202 H   0  0  0  0  0  0  0  0  0  0  0  0
  1  2  1  1  0  0  0
  1  4  1  0  0  0  0
  1  5  1  0  0  0  0
  2  4  1  0  0  0  0
  2  9  1  0  0  0  0
  2 16  1  1  0  0  0
  3  1  1  1  0  0  0
  3  6  1  0  0  0  0
  3  8  1  0  0  0  0
  3 11  1  0  0  0  0
  4 17  1  0  0  0  0
  4 18  1  0  0  0  0
  5  7  1  0  0  0  0
  5 12  1  0  0  0  0
  5 13  1  0  0  0  0
  6 10  1  0  0  0  0
  6 19  1  0  0  0  0
  6 20  1  0  0  0  0
  7 10  1  0  0  0  0
  7 21  1  0  0  0  0
  7 22  1  0  0  0  0
  8 14  1  0  0  0  0
  8 23  1  0  0  0  0
  8 24  1  0  0  0  0
  9 14  2  0  0  0  0
  9 15  1  0  0  0  0
 10 25  1  0  0  0  0
 10 26  1  0  0  0  0
 11 27  1  0  0  0  0
 11 28  1  0  0  0  0
 11 29  1  0  0  0  0
 12 30  1  0  0  0  0
 12 31  1  0  0  0  0
 12 32  1  0  0  0  0
 13 33  1  0  0  0  0
 13 34  1  0  0  0  0
 13 35  1  0  0  0  0
 14 36  1  0  0  0  0
 15 37  1  0  0  0  0
 15 38  1  0  0  0  0
 15 39  1  0  0  0  0
M  END
> <PUBCHEM_COMPOUND_CID>
442402

> <PUBCHEM_COMPOUND_CANONICALIZED>
1

> <PUBCHEM_CACTVS_COMPLEXITY>
336

> <PUBCHEM_CACTVS_HBOND_ACCEPTOR>
0

> <PUBCHEM_CACTVS_HBOND_DONOR>
0

> <PUBCHEM_CACTVS_ROTATABLE_BOND>
0

> <PUBCHEM_CACTVS_SUBSKEYS>
AAADceBwAAAAAAAAAAAAAAAAGAAAAAAAAAAwQAAABAAAAACAAAAAGAAAAAAADwCAAAACAAAAAACAAiBCAAAAAAAgAAAACAAAAAgAAAIAAQAAAAAAgAAIAAMAgMAPgAAAAAAAAAAAAAQAACAAAAAAAAAAAA==

> <PUBCHEM_IUPAC_OPENEYE_NAME>
(1~{a}~{S},4~{a}~{S},8~{a}~{S})-2,4~{a},8,8-tetramethyl-1,1~{a},4,5,6,7-hexahydrocyclopropa[j]naphthalene

> <PUBCHEM_IUPAC_CAS_NAME>
(1~{a}~{S},4~{a}~{S},8~{a}~{S})-2,4~{a},8,8-tetramethyl-1,1~{a},4,5,6,7-hexahydrocyclopropa[j]naphthalene

> <PUBCHEM_IUPAC_NAME>
(1~{a}~{S},4~{a}~{S},8~{a}~{S})-2,4~{a},8,8-tetramethyl-1,1~{a},4,5,6,7-hexahydrocyclopropa[j]naphthalene

> <PUBCHEM_IUPAC_SYSTEMATIC_NAME>
(1~{a}~{S},4~{a}~{S},8~{a}~{S})-2,4~{a},8,8-tetramethyl-1,1~{a},4,5,6,7-hexahydrocyclopropa[j]naphthalene

> <PUBCHEM_IUPAC_TRADITIONAL_NAME>
(1~{a}~{S},4~{a}~{S},8~{a}~{S})-2,4~{a},8,8-tetramethyl-1,1~{a},4,5,6,7-hexahydrocyclopropa[j]naphthalene

> <PUBCHEM_IUPAC_INCHI>
InChI=1S/C15H24/c1-11-6-9-14(4)8-5-7-13(2,3)15(14)10-12(11)15/h6,12H,5,7-10H2,1-4H3/t12-,14-,15-/m0/s1

> <PUBCHEM_IUPAC_INCHIKEY>
WXQGPFZDVCRBME-QEJZJMRPSA-N

> <PUBCHEM_XLOGP3_AA>
4.8

> <PUBCHEM_EXACT_MASS>
204.188

> <PUBCHEM_MOLECULAR_FORMULA>
C15H24

> <PUBCHEM_MOLECULAR_WEIGHT>
204.357

> <PUBCHEM_OPENEYE_CAN_SMILES>
CC1=CCC2(CCCC(C23C1C3)(C)C)C

> <PUBCHEM_OPENEYE_ISO_SMILES>
CC1=CC[C@@]2(CCCC([C@]23[C@H]1C3)(C)C)C

> <PUBCHEM_CACTVS_TPSA>
0

> <PUBCHEM_MONOISOTOPIC_WEIGHT>
204.188

> <PUBCHEM_TOTAL_CHARGE>
0

> <PUBCHEM_HEAVY_ATOM_COUNT>
15

> <PUBCHEM_ATOM_DEF_STEREO_COUNT>
3

> <PUBCHEM_ATOM_UDEF_STEREO_COUNT>
0

> <PUBCHEM_BOND_DEF_STEREO_COUNT>
0

> <PUBCHEM_BOND_UDEF_STEREO_COUNT>
0

> <PUBCHEM_ISOTOPIC_ATOM_COUNT>
0

> <PUBCHEM_COMPONENT_COUNT>
1

> <PUBCHEM_CACTVS_TAUTO_COUNT>
-1

> <PUBCHEM_COORDINATE_TYPE>
1 __ 5 __ 255

> <PUBCHEM_BONDANNOTATIONS>
1  4  5 __ 2  16  6 __ 3  11  5

$$$$
5362889
 OpenBabel02201912233D

 39 38  0  0  0  0  0  0  0  0999 V2000
    1.0763   -0.0657   -0.1220 C   0  0  0  0  0  0  0  0  0  0  0  0
    0.5810    0.3505    1.2732 C   0  0  0  0  0  0  0  0  0  0  0  0
    0.6412   -1.4318   -0.6372 C   0  0  0  0  0  0  0  0  0  0  0  0
   -0.1634   -2.2645    0.0578 C   0  0  0  0  0  0  0  0  0  0  0  0
    1.0083    1.7550    1.6083 C   0  0  0  0  0  0  0  0  0  0  0  0
   -0.7476   -3.5768   -0.3854 C   0  0  0  0  0  0  0  0  0  0  0  0
    1.1500   -1.7340   -2.0253 C   0  0  0  0  0  0  0  0  0  0  0  0
    0.1941    2.7755    1.9429 C   0  0  0  0  0  0  0  0  0  0  0  0
   -2.0730   -3.3485   -1.0576 C   0  0  0  0  0  0  0  0  0  0  0  0
    0.7406    4.1503    2.2066 C   0  0  0  0  0  0  0  0  0  0  0  0
   -1.2979    2.6334    2.0698 C   0  0  0  0  0  0  0  0  0  0  0  0
   -3.3187   -3.4029   -0.5426 C   0  0  0  0  0  0  0  0  0  0  0  0
   -4.4908   -3.0796   -1.4385 C   0  0  0  0  0  0  0  0  0  0  0  0
   -3.5907   -3.7222    0.8522 C   0  0  0  0  0  0  0  0  0  0  0  0
   -4.8013   -3.7949    1.4246 C   0  0  0  0  0  0  0  0  0  0  0  0
    2.1740   -0.0335   -0.1261 H   0  0  0  0  0  0  0  0  0  0  0  0
    0.7370    0.6851   -0.8495 H   0  0  0  0  0  0  0  0  0  0  0  0
   -0.5093    0.2590    1.3174 H   0  0  0  0  0  0  0  0  0  0  0  0
    0.9946   -0.3261    2.0308 H   0  0  0  0  0  0  0  0  0  0  0  0
   -0.5098   -1.9736    1.0459 H   0  0  0  0  0  0  0  0  0  0  0  0
    2.0820    1.9324    1.5608 H   0  0  0  0  0  0  0  0  0  0  0  0
   -0.0843   -4.1084   -1.0741 H   0  0  0  0  0  0  0  0  0  0  0  0
   -0.8346   -4.2393    0.4818 H   0  0  0  0  0  0  0  0  0  0  0  0
    0.5837   -1.1592   -2.7655 H   0  0  0  0  0  0  0  0  0  0  0  0
    2.2065   -1.4586   -2.1128 H   0  0  0  0  0  0  0  0  0  0  0  0
    1.0809   -2.7912   -2.2902 H   0  0  0  0  0  0  0  0  0  0  0  0
   -1.9675   -3.0719   -2.1069 H   0  0  0  0  0  0  0  0  0  0  0  0
    0.2898    4.8706    1.5162 H   0  0  0  0  0  0  0  0  0  0  0  0
    0.5164    4.4602    3.2322 H   0  0  0  0  0  0  0  0  0  0  0  0
    1.8261    4.1974    2.0706 H   0  0  0  0  0  0  0  0  0  0  0  0
   -1.7442    2.3444    1.1131 H   0  0  0  0  0  0  0  0  0  0  0  0
   -1.5529    1.8856    2.8280 H   0  0  0  0  0  0  0  0  0  0  0  0
   -1.7621    3.5766    2.3764 H   0  0  0  0  0  0  0  0  0  0  0  0
   -5.1718   -3.9344   -1.5104 H   0  0  0  0  0  0  0  0  0  0  0  0
   -5.0429   -2.2138   -1.0561 H   0  0  0  0  0  0  0  0  0  0  0  0
   -4.1769   -2.8313   -2.4586 H   0  0  0  0  0  0  0  0  0  0  0  0
   -2.7360   -3.9148    1.4968 H   0  0  0  0  0  0  0  0  0  0  0  0
   -4.8938   -4.0372    2.4783 H   0  0  0  0  0  0  0  0  0  0  0  0
   -5.7232   -3.6196    0.8836 H   0  0  0  0  0  0  0  0  0  0  0  0
  1  2  1  0  0  0  0
  1  3  1  0  0  0  0
  1 16  1  0  0  0  0
  1 17  1  0  0  0  0
  2  5  1  0  0  0  0
  2 18  1  0  0  0  0
  2 19  1  0  0  0  0
  3  4  2  0  0  0  0
  3  7  1  0  0  0  0
  4  6  1  0  0  0  0
  4 20  1  0  0  0  0
  5  8  2  0  0  0  0
  5 21  1  0  0  0  0
  6  9  1  0  0  0  0
  6 22  1  0  0  0  0
  6 23  1  0  0  0  0
  7 24  1  0  0  0  0
  7 25  1  0  0  0  0
  7 26  1  0  0  0  0
  8 10  1  0  0  0  0
  8 11  1  0  0  0  0
  9 12  2  0  0  0  0
  9 27  1  0  0  0  0
 10 28  1  0  0  0  0
 10 29  1  0  0  0  0
 10 30  1  0  0  0  0
 11 31  1  0  0  0  0
 11 32  1  0  0  0  0
 11 33  1  0  0  0  0
 12 13  1  0  0  0  0
 12 14  1  0  0  0  0
 13 34  1  0  0  0  0
 13 35  1  0  0  0  0
 13 36  1  0  0  0  0
 14 15  2  0  0  0  0
 14 37  1  0  0  0  0
 15 38  1  0  0  0  0
 15 39  1  0  0  0  0
M  END
> <PUBCHEM_COMPOUND_CID>
5362889

> <PUBCHEM_COMPOUND_CANONICALIZED>
1

> <PUBCHEM_CACTVS_COMPLEXITY>
270

> <PUBCHEM_CACTVS_HBOND_ACCEPTOR>
0

> <PUBCHEM_CACTVS_HBOND_DONOR>
0

> <PUBCHEM_CACTVS_ROTATABLE_BOND>
6

> <PUBCHEM_CACTVS_SUBSKEYS>
AAADceBwAAAAAAAAAAAAAAAAAAAAAAAAAAAAAAAAAAAAAAAAAAAAGAAAAAAADACAAAACAAAAAACAAiBCAAAAAAAgAAAICAAAAAgIAAIAAQAAAAAAgAAIgAIAAAAAAAAAAAAAAAAAAAAAAAAAAAAAAAAAAA==

> <PUBCHEM_IUPAC_OPENEYE_NAME>
(3~{Z},6~{E})-3,7,11-trimethyldodeca-1,3,6,10-tetraene

> <PUBCHEM_IUPAC_CAS_NAME>
(3~{Z},6~{E})-3,7,11-trimethyldodeca-1,3,6,10-tetraene

> <PUBCHEM_IUPAC_NAME>
(3~{Z},6~{E})-3,7,11-trimethyldodeca-1,3,6,10-tetraene

> <PUBCHEM_IUPAC_SYSTEMATIC_NAME>
(3~{Z},6~{E})-3,7,11-trimethyldodeca-1,3,6,10-tetraene

> <PUBCHEM_IUPAC_TRADITIONAL_NAME>
(3~{Z},6~{E})-3,7,11-trimethyldodeca-1,3,6,10-tetraene

> <PUBCHEM_IUPAC_INCHI>
InChI=1S/C15H24/c1-6-14(4)10-8-12-15(5)11-7-9-13(2)3/h6,9-10,12H,1,7-8,11H2,2-5H3/b14-10-,15-12+

> <PUBCHEM_IUPAC_INCHIKEY>
CXENHBSYCFFKJS-OXYODPPFSA-N

> <PUBCHEM_XLOGP3_AA>
6.1

> <PUBCHEM_EXACT_MASS>
204.188

> <PUBCHEM_MOLECULAR_FORMULA>
C15H24

> <PUBCHEM_MOLECULAR_WEIGHT>
204.357

> <PUBCHEM_OPENEYE_CAN_SMILES>
CC(=CCCC(=CCC=C(C)C=C)C)C

> <PUBCHEM_OPENEYE_ISO_SMILES>
CC(=CCC/C(=C/C/C=C(/C)\C=C)/C)C

> <PUBCHEM_CACTVS_TPSA>
0

> <PUBCHEM_MONOISOTOPIC_WEIGHT>
204.188

> <PUBCHEM_TOTAL_CHARGE>
0

> <PUBCHEM_HEAVY_ATOM_COUNT>
15

> <PUBCHEM_ATOM_DEF_STEREO_COUNT>
0

> <PUBCHEM_ATOM_UDEF_STEREO_COUNT>
0

> <PUBCHEM_BOND_DEF_STEREO_COUNT>
2

> <PUBCHEM_BOND_UDEF_STEREO_COUNT>
0

> <PUBCHEM_ISOTOPIC_ATOM_COUNT>
0

> <PUBCHEM_COMPONENT_COUNT>
1

> <PUBCHEM_CACTVS_TAUTO_COUNT>
-1

> <PUBCHEM_COORDINATE_TYPE>
1 __ 5 __ 255

$$$$
5317319
 OpenBabel02201912233D

 39 38  0  0  0  0  0  0  0  0999 V2000
    1.0325    0.1252   -0.1120 C   0  0  0  0  0  0  0  0  0  0  0  0
    0.5328    0.1443   -1.5620 C   0  0  0  0  0  0  0  0  0  0  0  0
    1.8080    1.4042    0.2768 C   0  0  0  0  0  0  0  0  0  0  0  0
   -0.6846   -2.1405   -1.6028 C   0  0  0  0  0  0  0  0  0  0  0  0
   -0.2040   -0.8214   -2.1468 C   0  0  0  0  0  0  0  0  0  0  0  0
   -0.7907   -3.1758   -2.7424 C   0  0  0  0  0  0  0  0  0  0  0  0
    2.3652    1.5198    1.6728 C   0  0  0  0  0  0  0  0  0  0  0  0
    0.8653    1.3588   -2.4060 C   0  0  0  0  0  0  0  0  0  0  0  0
    3.6700    1.7062    1.9659 C   0  0  0  0  0  0  0  0  0  0  0  0
   -1.3735   -4.5009   -2.2977 C   0  0  0  0  0  0  0  0  0  0  0  0
    4.1240    2.1057    3.3430 C   0  0  0  0  0  0  0  0  0  0  0  0
    4.7678    1.6008    0.9404 C   0  0  0  0  0  0  0  0  0  0  0  0
   -0.5136   -5.5394   -1.7539 C   0  0  0  0  0  0  0  0  0  0  0  0
   -2.6852   -4.7424   -2.4497 C   0  0  0  0  0  0  0  0  0  0  0  0
    0.8176   -5.4775   -1.6027 C   0  0  0  0  0  0  0  0  0  0  0  0
    1.6799   -0.7478    0.0369 H   0  0  0  0  0  0  0  0  0  0  0  0
    0.1706    0.0148    0.5589 H   0  0  0  0  0  0  0  0  0  0  0  0
    2.6194    1.5475   -0.4422 H   0  0  0  0  0  0  0  0  0  0  0  0
    1.1393    2.2653    0.1611 H   0  0  0  0  0  0  0  0  0  0  0  0
   -0.0252   -2.5063   -0.8088 H   0  0  0  0  0  0  0  0  0  0  0  0
   -1.6813   -1.9869   -1.1697 H   0  0  0  0  0  0  0  0  0  0  0  0
   -0.5198   -0.6450   -3.1763 H   0  0  0  0  0  0  0  0  0  0  0  0
   -1.4287   -2.7631   -3.5386 H   0  0  0  0  0  0  0  0  0  0  0  0
    0.1839   -3.3182   -3.2265 H   0  0  0  0  0  0  0  0  0  0  0  0
    1.6240    1.6112    2.4659 H   0  0  0  0  0  0  0  0  0  0  0  0
    0.4497    2.2667   -1.9574 H   0  0  0  0  0  0  0  0  0  0  0  0
    1.9492    1.4671   -2.5162 H   0  0  0  0  0  0  0  0  0  0  0  0
    0.4546    1.2965   -3.4178 H   0  0  0  0  0  0  0  0  0  0  0  0
    4.7050    0.6474    0.4045 H   0  0  0  0  0  0  0  0  0  0  0  0
    4.7580    1.3304    3.7831 H   0  0  0  0  0  0  0  0  0  0  0  0
    4.7047    3.0351    3.2857 H   0  0  0  0  0  0  0  0  0  0  0  0
    3.2848    2.2925    4.0206 H   0  0  0  0  0  0  0  0  0  0  0  0
    4.7108    2.4247    0.2215 H   0  0  0  0  0  0  0  0  0  0  0  0
    5.7569    1.6388    1.4085 H   0  0  0  0  0  0  0  0  0  0  0  0
   -1.0042   -6.4640   -1.4493 H   0  0  0  0  0  0  0  0  0  0  0  0
   -3.3546   -3.9943   -2.8672 H   0  0  0  0  0  0  0  0  0  0  0  0
   -3.1422   -5.6869   -2.1633 H   0  0  0  0  0  0  0  0  0  0  0  0
    1.3588   -6.3234   -1.1922 H   0  0  0  0  0  0  0  0  0  0  0  0
    1.4064   -4.6114   -1.8812 H   0  0  0  0  0  0  0  0  0  0  0  0
  1  2  1  0  0  0  0
  1  3  1  0  0  0  0
  1 16  1  0  0  0  0
  1 17  1  0  0  0  0
  2  5  2  0  0  0  0
  2  8  1  0  0  0  0
  3  7  1  0  0  0  0
  3 18  1  0  0  0  0
  3 19  1  0  0  0  0
  4  5  1  0  0  0  0
  4  6  1  0  0  0  0
  4 20  1  0  0  0  0
  4 21  1  0  0  0  0
  5 22  1  0  0  0  0
  6 10  1  0  0  0  0
  6 23  1  0  0  0  0
  6 24  1  0  0  0  0
  7  9  2  0  0  0  0
  7 25  1  0  0  0  0
  8 26  1  0  0  0  0
  8 27  1  0  0  0  0
  8 28  1  0  0  0  0
  9 11  1  0  0  0  0
  9 12  1  0  0  0  0
 10 13  1  0  0  0  0
 10 14  2  0  0  0  0
 11 30  1  0  0  0  0
 11 31  1  0  0  0  0
 11 32  1  0  0  0  0
 12 29  1  0  0  0  0
 12 33  1  0  0  0  0
 12 34  1  0  0  0  0
 13 15  2  0  0  0  0
 13 35  1  0  0  0  0
 14 36  1  0  0  0  0
 14 37  1  0  0  0  0
 15 38  1  0  0  0  0
 15 39  1  0  0  0  0
M  END
> <PUBCHEM_COMPOUND_CID>
5317319

> <PUBCHEM_COMPOUND_CANONICALIZED>
1

> <PUBCHEM_CACTVS_COMPLEXITY>
260

> <PUBCHEM_CACTVS_HBOND_ACCEPTOR>
0

> <PUBCHEM_CACTVS_HBOND_DONOR>
0

> <PUBCHEM_CACTVS_ROTATABLE_BOND>
7

> <PUBCHEM_CACTVS_SUBSKEYS>
AAADceBwAAAAAAAAAAAAAAAAAAAAAAAAAAAAAAAAAAAAAAAAAAAAGAAAAAAADACAAAACAAAAAACAAiBCAAAAAAAgAAAICAAAAAgIAAIAAQAAAAAAgAAIAAIAAAAAAAAAAAAAAAAAAAAAAAAAAAAAAAAAAA==

> <PUBCHEM_IUPAC_OPENEYE_NAME>
(6~{Z})-7,11-dimethyl-3-methylene-dodeca-1,6,10-triene

> <PUBCHEM_IUPAC_CAS_NAME>
(6~{Z})-7,11-dimethyl-3-methylenedodeca-1,6,10-triene

> <PUBCHEM_IUPAC_NAME>
(6~{Z})-7,11-dimethyl-3-methylidenedodeca-1,6,10-triene

> <PUBCHEM_IUPAC_SYSTEMATIC_NAME>
(6~{Z})-7,11-dimethyl-3-methylidene-dodeca-1,6,10-triene

> <PUBCHEM_IUPAC_TRADITIONAL_NAME>
(6~{Z})-7,11-dimethyl-3-methylene-dodeca-1,6,10-triene

> <PUBCHEM_IUPAC_INCHI>
InChI=1S/C15H24/c1-6-14(4)10-8-12-15(5)11-7-9-13(2)3/h6,9,12H,1,4,7-8,10-11H2,2-3,5H3/b15-12-

> <PUBCHEM_IUPAC_INCHIKEY>
JSNRRGGBADWTMC-QINSGFPZSA-N

> <PUBCHEM_XLOGP3_AA>
6.2

> <PUBCHEM_EXACT_MASS>
204.188

> <PUBCHEM_MOLECULAR_FORMULA>
C15H24

> <PUBCHEM_MOLECULAR_WEIGHT>
204.357

> <PUBCHEM_OPENEYE_CAN_SMILES>
CC(=CCCC(=CCCC(=C)C=C)C)C

> <PUBCHEM_OPENEYE_ISO_SMILES>
CC(=CCC/C(=C\CCC(=C)C=C)/C)C

> <PUBCHEM_CACTVS_TPSA>
0

> <PUBCHEM_MONOISOTOPIC_WEIGHT>
204.188

> <PUBCHEM_TOTAL_CHARGE>
0

> <PUBCHEM_HEAVY_ATOM_COUNT>
15

> <PUBCHEM_ATOM_DEF_STEREO_COUNT>
0

> <PUBCHEM_ATOM_UDEF_STEREO_COUNT>
0

> <PUBCHEM_BOND_DEF_STEREO_COUNT>
1

> <PUBCHEM_BOND_UDEF_STEREO_COUNT>
0

> <PUBCHEM_ISOTOPIC_ATOM_COUNT>
0

> <PUBCHEM_COMPONENT_COUNT>
1

> <PUBCHEM_CACTVS_TAUTO_COUNT>
-1

> <PUBCHEM_COORDINATE_TYPE>
1 __ 5 __ 255

$$$$
86608
 OpenBabel02201912233D

 39 40  0  0  1  0  0  0  0  0999 V2000
   -0.9028    0.0258    1.1465 C   0  0  3  0  0  0  0  0  0  0  0  0
   -0.5796    1.0364   -0.0497 C   0  0  3  0  0  0  0  0  0  0  0  0
   -0.4162   -1.0645    0.0818 C   0  0  3  0  0  0  0  0  0  0  0  0
   -0.9778   -0.1025   -1.0310 C   0  0  0  0  0  0  0  0  0  0  0  0
    0.9268    1.3364   -0.2699 C   0  0  0  0  0  0  0  0  0  0  0  0
   -2.3534   -0.1221    1.7001 C   0  0  0  0  0  0  0  0  0  0  0  0
    1.0781   -1.1503   -0.0736 C   0  0  0  0  0  0  0  0  0  0  0  0
   -0.0290    0.3043    2.3957 C   0  0  0  0  0  0  0  0  0  0  0  0
    1.7083    0.0286   -0.2642 C   0  0  0  0  0  0  0  0  0  0  0  0
   -3.4328   -0.5831    0.7284 C   0  0  0  0  0  0  0  0  0  0  0  0
    1.7118   -2.4986   -0.0512 C   0  0  0  0  0  0  0  0  0  0  0  0
   -4.7759   -0.6973    1.3968 C   0  0  0  0  0  0  0  0  0  0  0  0
   -5.9134   -0.1432    0.9387 C   0  0  0  0  0  0  0  0  0  0  0  0
   -7.2039   -0.2581    1.7048 C   0  0  0  0  0  0  0  0  0  0  0  0
   -5.9897    0.6227   -0.3534 C   0  0  0  0  0  0  0  0  0  0  0  0
   -1.2009    1.9364   -0.0845 H   0  0  0  0  0  0  0  0  0  0  0  0
   -0.9011   -2.0432    0.1395 H   0  0  0  0  0  0  0  0  0  0  0  0
   -0.4601   -0.1088   -1.9989 H   0  0  0  0  0  0  0  0  0  0  0  0
   -2.0310   -0.1935   -1.2859 H   0  0  0  0  0  0  0  0  0  0  0  0
    1.3019    2.0005    0.5151 H   0  0  0  0  0  0  0  0  0  0  0  0
    1.0698    1.8414   -1.2316 H   0  0  0  0  0  0  0  0  0  0  0  0
   -2.3307   -0.8488    2.5246 H   0  0  0  0  0  0  0  0  0  0  0  0
   -2.6581    0.8344    2.1457 H   0  0  0  0  0  0  0  0  0  0  0  0
    1.0462    0.2657    2.2146 H   0  0  0  0  0  0  0  0  0  0  0  0
   -0.2509    1.3034    2.7904 H   0  0  0  0  0  0  0  0  0  0  0  0
   -0.2299   -0.4218    3.1910 H   0  0  0  0  0  0  0  0  0  0  0  0
    2.7829    0.0747   -0.4077 H   0  0  0  0  0  0  0  0  0  0  0  0
   -3.5068    0.1371   -0.0827 H   0  0  0  0  0  0  0  0  0  0  0  0
   -3.1806   -1.5622    0.3076 H   0  0  0  0  0  0  0  0  0  0  0  0
    1.4341   -3.0317    0.8638 H   0  0  0  0  0  0  0  0  0  0  0  0
    1.3700   -3.0891   -0.9077 H   0  0  0  0  0  0  0  0  0  0  0  0
    2.8035   -2.4370   -0.0914 H   0  0  0  0  0  0  0  0  0  0  0  0
   -4.7990   -1.2745    2.3226 H   0  0  0  0  0  0  0  0  0  0  0  0
   -7.6064    0.7425    1.9007 H   0  0  0  0  0  0  0  0  0  0  0  0
   -7.9401   -0.8218    1.1236 H   0  0  0  0  0  0  0  0  0  0  0  0
   -7.0732   -0.7579    2.6675 H   0  0  0  0  0  0  0  0  0  0  0  0
   -5.4043    1.5457   -0.2893 H   0  0  0  0  0  0  0  0  0  0  0  0
   -5.6177    0.0173   -1.1870 H   0  0  0  0  0  0  0  0  0  0  0  0
   -7.0214    0.8995   -0.5933 H   0  0  0  0  0  0  0  0  0  0  0  0
  1  2  1  0  0  0  0
  1  3  1  0  0  0  0
  1  6  1  0  0  0  0
  1  8  1  0  0  0  0
  2  4  1  0  0  0  0
  2  5  1  0  0  0  0
  2 16  1  0  0  0  0
  3  4  1  0  0  0  0
  3  7  1  0  0  0  0
  3 17  1  0  0  0  0
  4 18  1  0  0  0  0
  4 19  1  0  0  0  0
  5  9  1  0  0  0  0
  5 20  1  0  0  0  0
  5 21  1  0  0  0  0
  6 10  1  0  0  0  0
  6 22  1  0  0  0  0
  6 23  1  0  0  0  0
  7  9  2  0  0  0  0
  7 11  1  0  0  0  0
  8 24  1  0  0  0  0
  8 25  1  0  0  0  0
  8 26  1  0  0  0  0
  9 27  1  0  0  0  0
 10 12  1  0  0  0  0
 10 28  1  0  0  0  0
 10 29  1  0  0  0  0
 11 30  1  0  0  0  0
 11 31  1  0  0  0  0
 11 32  1  0  0  0  0
 12 13  2  0  0  0  0
 12 33  1  0  0  0  0
 13 14  1  0  0  0  0
 13 15  1  0  0  0  0
 14 34  1  0  0  0  0
 14 35  1  0  0  0  0
 14 36  1  0  0  0  0
 15 37  1  0  0  0  0
 15 38  1  0  0  0  0
 15 39  1  0  0  0  0
M  END
> <PUBCHEM_COMPOUND_CID>
86608

> <PUBCHEM_COMPOUND_CANONICALIZED>
1

> <PUBCHEM_CACTVS_COMPLEXITY>
304

> <PUBCHEM_CACTVS_HBOND_ACCEPTOR>
0

> <PUBCHEM_CACTVS_HBOND_DONOR>
0

> <PUBCHEM_CACTVS_ROTATABLE_BOND>
3

> <PUBCHEM_CACTVS_SUBSKEYS>
AAADceBwAAAAAAAAAAAAAAAAAABgAAAAAAAgQAAAAAAAAAAAAAAAGAAAAAAADwCAAAACAAAAAACAAiBCAAAAAAAgAAAACAAAAAgAAAIAAQAAAAAAgAAIAAMAgMAPgAAAAAAAAAAAAAAAAAAAAAAAAAAAAA==

> <PUBCHEM_IUPAC_OPENEYE_NAME>
2,6-dimethyl-6-(4-methylpent-3-enyl)bicyclo[3.1.1]hept-2-ene

> <PUBCHEM_IUPAC_CAS_NAME>
2,6-dimethyl-6-(4-methylpent-3-enyl)bicyclo[3.1.1]hept-2-ene

> <PUBCHEM_IUPAC_NAME>
2,6-dimethyl-6-(4-methylpent-3-enyl)bicyclo[3.1.1]hept-2-ene

> <PUBCHEM_IUPAC_SYSTEMATIC_NAME>
2,6-dimethyl-6-(4-methylpent-3-enyl)bicyclo[3.1.1]hept-2-ene

> <PUBCHEM_IUPAC_TRADITIONAL_NAME>
2,6-dimethyl-6-(4-methylpent-3-enyl)bicyclo[3.1.1]hept-2-ene

> <PUBCHEM_IUPAC_INCHI>
InChI=1S/C15H24/c1-11(2)6-5-9-15(4)13-8-7-12(3)14(15)10-13/h6-7,13-14H,5,8-10H2,1-4H3

> <PUBCHEM_IUPAC_INCHIKEY>
YMBFCQPIMVLNIU-UHFFFAOYSA-N

> <PUBCHEM_XLOGP3_AA>
4.8

> <PUBCHEM_EXACT_MASS>
204.188

> <PUBCHEM_MOLECULAR_FORMULA>
C15H24

> <PUBCHEM_MOLECULAR_WEIGHT>
204.357

> <PUBCHEM_OPENEYE_CAN_SMILES>
CC1=CCC2CC1C2(C)CCC=C(C)C

> <PUBCHEM_OPENEYE_ISO_SMILES>
CC1=CCC2CC1C2(C)CCC=C(C)C

> <PUBCHEM_CACTVS_TPSA>
0

> <PUBCHEM_MONOISOTOPIC_WEIGHT>
204.188

> <PUBCHEM_TOTAL_CHARGE>
0

> <PUBCHEM_HEAVY_ATOM_COUNT>
15

> <PUBCHEM_ATOM_DEF_STEREO_COUNT>
0

> <PUBCHEM_ATOM_UDEF_STEREO_COUNT>
3

> <PUBCHEM_BOND_DEF_STEREO_COUNT>
0

> <PUBCHEM_BOND_UDEF_STEREO_COUNT>
0

> <PUBCHEM_ISOTOPIC_ATOM_COUNT>
0

> <PUBCHEM_COMPONENT_COUNT>
1

> <PUBCHEM_CACTVS_TAUTO_COUNT>
-1

> <PUBCHEM_COORDINATE_TYPE>
1 __ 5 __ 255

> <PUBCHEM_BONDANNOTATIONS>
1  8  3 __ 2  5  3 __ 3  4  3

$$$$
5317319_2
 OpenBabel02201912233D

 39 38  0  0  0  0  0  0  0  0999 V2000
    1.1002   -0.0112    0.0082 C   0  0  0  0  0  0  0  0  0  0  0  0
    0.6025    0.7861   -1.2035 C   0  0  0  0  0  0  0  0  0  0  0  0
    1.8786    0.8539    1.0238 C   0  0  0  0  0  0  0  0  0  0  0  0
   -0.6118   -1.1198   -2.4656 C   0  0  0  0  0  0  0  0  0  0  0  0
   -0.1330    0.2852   -2.2177 C   0  0  0  0  0  0  0  0  0  0  0  0
   -0.7130   -1.3813   -3.9833 C   0  0  0  0  0  0  0  0  0  0  0  0
    2.4322    0.1979    2.2612 C   0  0  0  0  0  0  0  0  0  0  0  0
    0.9350    2.2625   -1.2597 C   0  0  0  0  0  0  0  0  0  0  0  0
    3.7349    0.2029    2.6104 C   0  0  0  0  0  0  0  0  0  0  0  0
   -1.2853   -2.7413   -4.3245 C   0  0  0  0  0  0  0  0  0  0  0  0
    4.1893   -0.2030    3.9896 C   0  0  0  0  0  0  0  0  0  0  0  0
    4.8348    0.6688    1.6943 C   0  0  0  0  0  0  0  0  0  0  0  0
   -0.4143   -3.9035   -4.4206 C   0  0  0  0  0  0  0  0  0  0  0  0
   -2.5956   -2.8736   -4.5912 C   0  0  0  0  0  0  0  0  0  0  0  0
    0.9122   -3.9225   -4.2394 C   0  0  0  0  0  0  0  0  0  0  0  0
    1.7451   -0.8292   -0.3356 H   0  0  0  0  0  0  0  0  0  0  0  0
    0.2372   -0.4627    0.5148 H   0  0  0  0  0  0  0  0  0  0  0  0
    2.6895    1.3632    0.4936 H   0  0  0  0  0  0  0  0  0  0  0  0
    1.2101    1.6456    1.3888 H   0  0  0  0  0  0  0  0  0  0  0  0
    0.0473   -1.8544   -1.9919 H   0  0  0  0  0  0  0  0  0  0  0  0
   -1.6092   -1.2243   -2.0223 H   0  0  0  0  0  0  0  0  0  0  0  0
   -0.4473    0.9870   -2.9923 H   0  0  0  0  0  0  0  0  0  0  0  0
   -1.3565   -0.6100   -4.4339 H   0  0  0  0  0  0  0  0  0  0  0  0
    0.2606   -1.2332   -4.4676 H   0  0  0  0  0  0  0  0  0  0  0  0
    1.6901   -0.1519    2.9771 H   0  0  0  0  0  0  0  0  0  0  0  0
    0.5165    2.7865   -0.3962 H   0  0  0  0  0  0  0  0  0  0  0  0
    2.0173    2.4137   -1.2945 H   0  0  0  0  0  0  0  0  0  0  0  0
    0.5240    2.7516   -2.1510 H   0  0  0  0  0  0  0  0  0  0  0  0
    4.7750    0.1570    0.7273 H   0  0  0  0  0  0  0  0  0  0  0  0
    4.8243   -1.0926    3.9418 H   0  0  0  0  0  0  0  0  0  0  0  0
    4.7690    0.6112    4.4426 H   0  0  0  0  0  0  0  0  0  0  0  0
    3.3488   -0.4116    4.6584 H   0  0  0  0  0  0  0  0  0  0  0  0
    4.7789    1.7505    1.5330 H   0  0  0  0  0  0  0  0  0  0  0  0
    5.8250    0.4478    2.1094 H   0  0  0  0  0  0  0  0  0  0  0  0
   -0.8952   -4.8476   -4.6789 H   0  0  0  0  0  0  0  0  0  0  0  0
   -3.2716   -2.0222   -4.5430 H   0  0  0  0  0  0  0  0  0  0  0  0
   -3.0403   -3.8273   -4.8577 H   0  0  0  0  0  0  0  0  0  0  0  0
    1.4646   -4.8508   -4.3496 H   0  0  0  0  0  0  0  0  0  0  0  0
    1.4909   -3.0410   -3.9889 H   0  0  0  0  0  0  0  0  0  0  0  0
  1  2  1  0  0  0  0
  1  3  1  0  0  0  0
  1 16  1  0  0  0  0
  1 17  1  0  0  0  0
  2  5  2  0  0  0  0
  2  8  1  0  0  0  0
  3  7  1  0  0  0  0
  3 18  1  0  0  0  0
  3 19  1  0  0  0  0
  4  5  1  0  0  0  0
  4  6  1  0  0  0  0
  4 20  1  0  0  0  0
  4 21  1  0  0  0  0
  5 22  1  0  0  0  0
  6 10  1  0  0  0  0
  6 23  1  0  0  0  0
  6 24  1  0  0  0  0
  7  9  2  0  0  0  0
  7 25  1  0  0  0  0
  8 26  1  0  0  0  0
  8 27  1  0  0  0  0
  8 28  1  0  0  0  0
  9 11  1  0  0  0  0
  9 12  1  0  0  0  0
 10 13  1  0  0  0  0
 10 14  2  0  0  0  0
 11 30  1  0  0  0  0
 11 31  1  0  0  0  0
 11 32  1  0  0  0  0
 12 29  1  0  0  0  0
 12 33  1  0  0  0  0
 12 34  1  0  0  0  0
 13 15  2  0  0  0  0
 13 35  1  0  0  0  0
 14 36  1  0  0  0  0
 14 37  1  0  0  0  0
 15 38  1  0  0  0  0
 15 39  1  0  0  0  0
M  END
> <PUBCHEM_COMPOUND_CID>
5317319

> <PUBCHEM_COMPOUND_CANONICALIZED>
1

> <PUBCHEM_CACTVS_COMPLEXITY>
260

> <PUBCHEM_CACTVS_HBOND_ACCEPTOR>
0

> <PUBCHEM_CACTVS_HBOND_DONOR>
0

> <PUBCHEM_CACTVS_ROTATABLE_BOND>
7

> <PUBCHEM_CACTVS_SUBSKEYS>
AAADceBwAAAAAAAAAAAAAAAAAAAAAAAAAAAAAAAAAAAAAAAAAAAAGAAAAAAADACAAAACAAAAAACAAiBCAAAAAAAgAAAICAAAAAgIAAIAAQAAAAAAgAAIAAIAAAAAAAAAAAAAAAAAAAAAAAAAAAAAAAAAAA==

> <PUBCHEM_IUPAC_OPENEYE_NAME>
(6~{Z})-7,11-dimethyl-3-methylene-dodeca-1,6,10-triene

> <PUBCHEM_IUPAC_CAS_NAME>
(6~{Z})-7,11-dimethyl-3-methylenedodeca-1,6,10-triene

> <PUBCHEM_IUPAC_NAME>
(6~{Z})-7,11-dimethyl-3-methylidenedodeca-1,6,10-triene

> <PUBCHEM_IUPAC_SYSTEMATIC_NAME>
(6~{Z})-7,11-dimethyl-3-methylidene-dodeca-1,6,10-triene

> <PUBCHEM_IUPAC_TRADITIONAL_NAME>
(6~{Z})-7,11-dimethyl-3-methylene-dodeca-1,6,10-triene

> <PUBCHEM_IUPAC_INCHI>
InChI=1S/C15H24/c1-6-14(4)10-8-12-15(5)11-7-9-13(2)3/h6,9,12H,1,4,7-8,10-11H2,2-3,5H3/b15-12-

> <PUBCHEM_IUPAC_INCHIKEY>
JSNRRGGBADWTMC-QINSGFPZSA-N

> <PUBCHEM_XLOGP3_AA>
6.2

> <PUBCHEM_EXACT_MASS>
204.188

> <PUBCHEM_MOLECULAR_FORMULA>
C15H24

> <PUBCHEM_MOLECULAR_WEIGHT>
204.357

> <PUBCHEM_OPENEYE_CAN_SMILES>
CC(=CCCC(=CCCC(=C)C=C)C)C

> <PUBCHEM_OPENEYE_ISO_SMILES>
CC(=CCC/C(=C\CCC(=C)C=C)/C)C

> <PUBCHEM_CACTVS_TPSA>
0

> <PUBCHEM_MONOISOTOPIC_WEIGHT>
204.188

> <PUBCHEM_TOTAL_CHARGE>
0

> <PUBCHEM_HEAVY_ATOM_COUNT>
15

> <PUBCHEM_ATOM_DEF_STEREO_COUNT>
0

> <PUBCHEM_ATOM_UDEF_STEREO_COUNT>
0

> <PUBCHEM_BOND_DEF_STEREO_COUNT>
1

> <PUBCHEM_BOND_UDEF_STEREO_COUNT>
0

> <PUBCHEM_ISOTOPIC_ATOM_COUNT>
0

> <PUBCHEM_COMPONENT_COUNT>
1

> <PUBCHEM_CACTVS_TAUTO_COUNT>
-1

> <PUBCHEM_COORDINATE_TYPE>
1 __ 5 __ 255

$$$$
