5362858
  -OEChem-02201912152D

 18 17  0     1  0  0  0  0  0999 V2000
    6.3301    0.4400    0.0000 O   0  0  0  0  0  0  0  0  0  0  0  0
    5.4641   -0.0600    0.0000 N   0  0  0  0  0  0  0  0  0  0  0  0
    3.7320   -0.0600    0.0000 C   0  0  3  0  0  0  0  0  0  0  0  0
    2.8660    0.4400    0.0000 C   0  0  0  0  0  0  0  0  0  0  0  0
    3.7320   -1.0600    0.0000 C   0  0  0  0  0  0  0  0  0  0  0  0
    2.0000   -0.0600    0.0000 C   0  0  0  0  0  0  0  0  0  0  0  0
    4.5981    0.4400    0.0000 C   0  0  0  0  0  0  0  0  0  0  0  0
    4.4682   -0.4850    0.0000 H   0  0  0  0  0  0  0  0  0  0  0  0
    3.2646    0.9149    0.0000 H   0  0  0  0  0  0  0  0  0  0  0  0
    2.4675    0.9149    0.0000 H   0  0  0  0  0  0  0  0  0  0  0  0
    3.1120   -1.0600    0.0000 H   0  0  0  0  0  0  0  0  0  0  0  0
    3.7320   -1.6800    0.0000 H   0  0  0  0  0  0  0  0  0  0  0  0
    4.3520   -1.0600    0.0000 H   0  0  0  0  0  0  0  0  0  0  0  0
    1.6900    0.4769    0.0000 H   0  0  0  0  0  0  0  0  0  0  0  0
    1.4631   -0.3700    0.0000 H   0  0  0  0  0  0  0  0  0  0  0  0
    2.3100   -0.5969    0.0000 H   0  0  0  0  0  0  0  0  0  0  0  0
    4.5981    1.0600    0.0000 H   0  0  0  0  0  0  0  0  0  0  0  0
    6.8671    0.1300    0.0000 H   0  0  0  0  0  0  0  0  0  0  0  0
  1  2  1  0  0  0  0
  1 18  1  0  0  0  0
  2  7  2  0  0  0  0
  3  4  1  0  0  0  0
  3  5  1  0  0  0  0
  3  7  1  0  0  0  0
  3  8  1  0  0  0  0
  4  6  1  0  0  0  0
  4  9  1  0  0  0  0
  4 10  1  0  0  0  0
  5 11  1  0  0  0  0
  5 12  1  0  0  0  0
  5 13  1  0  0  0  0
  6 14  1  0  0  0  0
  6 15  1  0  0  0  0
  6 16  1  0  0  0  0
  7 17  1  0  0  0  0
M  END
> <PUBCHEM_COMPOUND_CID>
5362858

> <PUBCHEM_COMPOUND_CANONICALIZED>
1

> <PUBCHEM_CACTVS_COMPLEXITY>
61.1

> <PUBCHEM_CACTVS_HBOND_ACCEPTOR>
2

> <PUBCHEM_CACTVS_HBOND_DONOR>
1

> <PUBCHEM_CACTVS_ROTATABLE_BOND>
2

> <PUBCHEM_CACTVS_SUBSKEYS>
AAADccBiIAAAAAAAAAAAAAAAAAAAAAAAAAAAAAAAAAAAAAAAAAAAHAAECAAADQDBAAQCAAAQAAAgABAhAAAAAAAAAAAAAAAwAAAAAAAAAAAAAAAAAAAAAAAAAAAIAAAAAAAAAAAAAAAAAAAAAAAAAAAAAA==

> <PUBCHEM_IUPAC_OPENEYE_NAME>
(1~{E})-2-methylbutanal oxime

> <PUBCHEM_IUPAC_CAS_NAME>
(1~{E})-2-methylbutanal oxime

> <PUBCHEM_IUPAC_NAME>
(~{N}~{E})-~{N}-(2-methylbutylidene)hydroxylamine

> <PUBCHEM_IUPAC_SYSTEMATIC_NAME>
(~{N}~{E})-~{N}-(2-methylbutylidene)hydroxylamine

> <PUBCHEM_IUPAC_TRADITIONAL_NAME>
(1~{E})-2-methylbutyraldoxime

> <PUBCHEM_IUPAC_INCHI>
InChI=1S/C5H11NO/c1-3-5(2)4-6-7/h4-5,7H,3H2,1-2H3/b6-4+

> <PUBCHEM_IUPAC_INCHIKEY>
SEWWFHKIKWFJNV-GQCTYLIASA-N

> <PUBCHEM_XLOGP3_AA>
1.4

> <PUBCHEM_EXACT_MASS>
101.084

> <PUBCHEM_MOLECULAR_FORMULA>
C5H11NO

> <PUBCHEM_MOLECULAR_WEIGHT>
101.149

> <PUBCHEM_OPENEYE_CAN_SMILES>
CCC(C)C=NO

> <PUBCHEM_OPENEYE_ISO_SMILES>
CCC(C)/C=N/O

> <PUBCHEM_CACTVS_TPSA>
32.6

> <PUBCHEM_MONOISOTOPIC_WEIGHT>
101.084

> <PUBCHEM_TOTAL_CHARGE>
0

> <PUBCHEM_HEAVY_ATOM_COUNT>
7

> <PUBCHEM_ATOM_DEF_STEREO_COUNT>
0

> <PUBCHEM_ATOM_UDEF_STEREO_COUNT>
1

> <PUBCHEM_BOND_DEF_STEREO_COUNT>
1

> <PUBCHEM_BOND_UDEF_STEREO_COUNT>
0

> <PUBCHEM_ISOTOPIC_ATOM_COUNT>
0

> <PUBCHEM_COMPONENT_COUNT>
1

> <PUBCHEM_CACTVS_TAUTO_COUNT>
3

> <PUBCHEM_COORDINATE_TYPE>
1
5
255

> <PUBCHEM_BONDANNOTATIONS>
3  8  3

$$$$
5357349
  -OEChem-02201912152D

 18 17  0     0  0  0  0  0  0999 V2000
    6.3301    0.2500    0.0000 O   0  0  0  0  0  0  0  0  0  0  0  0
    5.4641    0.7500    0.0000 N   0  0  0  0  0  0  0  0  0  0  0  0
    2.8660    0.2500    0.0000 C   0  0  0  0  0  0  0  0  0  0  0  0
    3.7320    0.7500    0.0000 C   0  0  0  0  0  0  0  0  0  0  0  0
    2.0000    0.7500    0.0000 C   0  0  0  0  0  0  0  0  0  0  0  0
    2.8660   -0.7500    0.0000 C   0  0  0  0  0  0  0  0  0  0  0  0
    4.5981    0.2500    0.0000 C   0  0  0  0  0  0  0  0  0  0  0  0
    2.8660    0.8700    0.0000 H   0  0  0  0  0  0  0  0  0  0  0  0
    4.1306    1.2250    0.0000 H   0  0  0  0  0  0  0  0  0  0  0  0
    3.3335    1.2250    0.0000 H   0  0  0  0  0  0  0  0  0  0  0  0
    2.3100    1.2869    0.0000 H   0  0  0  0  0  0  0  0  0  0  0  0
    1.4631    1.0600    0.0000 H   0  0  0  0  0  0  0  0  0  0  0  0
    1.6900    0.2131    0.0000 H   0  0  0  0  0  0  0  0  0  0  0  0
    2.2460   -0.7500    0.0000 H   0  0  0  0  0  0  0  0  0  0  0  0
    2.8660   -1.3700    0.0000 H   0  0  0  0  0  0  0  0  0  0  0  0
    3.4860   -0.7500    0.0000 H   0  0  0  0  0  0  0  0  0  0  0  0
    4.5981   -0.3700    0.0000 H   0  0  0  0  0  0  0  0  0  0  0  0
    6.8671    0.5600    0.0000 H   0  0  0  0  0  0  0  0  0  0  0  0
  1  2  1  0  0  0  0
  1 18  1  0  0  0  0
  2  7  2  0  0  0  0
  3  4  1  0  0  0  0
  3  5  1  0  0  0  0
  3  6  1  0  0  0  0
  3  8  1  0  0  0  0
  4  7  1  0  0  0  0
  4  9  1  0  0  0  0
  4 10  1  0  0  0  0
  5 11  1  0  0  0  0
  5 12  1  0  0  0  0
  5 13  1  0  0  0  0
  6 14  1  0  0  0  0
  6 15  1  0  0  0  0
  6 16  1  0  0  0  0
  7 17  1  0  0  0  0
M  END
> <PUBCHEM_COMPOUND_CID>
5357349

> <PUBCHEM_COMPOUND_CANONICALIZED>
1

> <PUBCHEM_CACTVS_COMPLEXITY>
59.1

> <PUBCHEM_CACTVS_HBOND_ACCEPTOR>
2

> <PUBCHEM_CACTVS_HBOND_DONOR>
1

> <PUBCHEM_CACTVS_ROTATABLE_BOND>
2

> <PUBCHEM_CACTVS_SUBSKEYS>
AAADccBiIAAAAAAAAAAAAAAAAAAAAAAAAAAAAAAAAAAAAAAAAAAAHAAECAAADQDBAAQCAAAQAAAgABAhAAAAAAAAAAAAAAAwAAAAAAAAAAAAAAAAAAAAAAAAAAAIAAAAAAAAAAAAAAAAAAAAAAAAAAAAAA==

> <PUBCHEM_IUPAC_OPENEYE_NAME>
(1~{E})-3-methylbutanal oxime

> <PUBCHEM_IUPAC_CAS_NAME>
(1~{E})-3-methylbutanal oxime

> <PUBCHEM_IUPAC_NAME>
(~{N}~{E})-~{N}-(3-methylbutylidene)hydroxylamine

> <PUBCHEM_IUPAC_SYSTEMATIC_NAME>
(~{N}~{E})-~{N}-(3-methylbutylidene)hydroxylamine

> <PUBCHEM_IUPAC_TRADITIONAL_NAME>
(1~{E})-3-methylbutyraldoxime

> <PUBCHEM_IUPAC_INCHI>
InChI=1S/C5H11NO/c1-5(2)3-4-6-7/h4-5,7H,3H2,1-2H3/b6-4+

> <PUBCHEM_IUPAC_INCHIKEY>
JAUPRNSQRRCCRR-GQCTYLIASA-N

> <PUBCHEM_XLOGP3_AA>
1.2

> <PUBCHEM_EXACT_MASS>
101.084

> <PUBCHEM_MOLECULAR_FORMULA>
C5H11NO

> <PUBCHEM_MOLECULAR_WEIGHT>
101.149

> <PUBCHEM_OPENEYE_CAN_SMILES>
CC(C)CC=NO

> <PUBCHEM_OPENEYE_ISO_SMILES>
CC(C)C/C=N/O

> <PUBCHEM_CACTVS_TPSA>
32.6

> <PUBCHEM_MONOISOTOPIC_WEIGHT>
101.084

> <PUBCHEM_TOTAL_CHARGE>
0

> <PUBCHEM_HEAVY_ATOM_COUNT>
7

> <PUBCHEM_ATOM_DEF_STEREO_COUNT>
0

> <PUBCHEM_ATOM_UDEF_STEREO_COUNT>
0

> <PUBCHEM_BOND_DEF_STEREO_COUNT>
1

> <PUBCHEM_BOND_UDEF_STEREO_COUNT>
0

> <PUBCHEM_ISOTOPIC_ATOM_COUNT>
0

> <PUBCHEM_COMPONENT_COUNT>
1

> <PUBCHEM_CACTVS_TAUTO_COUNT>
3

> <PUBCHEM_COORDINATE_TYPE>
1
5
255

$$$$
31260
  -OEChem-02201912152D

 18 17  0     0  0  0  0  0  0999 V2000
    5.4641    0.7500    0.0000 O   0  0  0  0  0  0  0  0  0  0  0  0
    2.8660    0.2500    0.0000 C   0  0  0  0  0  0  0  0  0  0  0  0
    3.7320    0.7500    0.0000 C   0  0  0  0  0  0  0  0  0  0  0  0
    2.0000    0.7500    0.0000 C   0  0  0  0  0  0  0  0  0  0  0  0
    2.8660   -0.7500    0.0000 C   0  0  0  0  0  0  0  0  0  0  0  0
    4.5981    0.2500    0.0000 C   0  0  0  0  0  0  0  0  0  0  0  0
    2.8660    0.8700    0.0000 H   0  0  0  0  0  0  0  0  0  0  0  0
    4.1306    1.2250    0.0000 H   0  0  0  0  0  0  0  0  0  0  0  0
    3.3335    1.2250    0.0000 H   0  0  0  0  0  0  0  0  0  0  0  0
    2.3100    1.2869    0.0000 H   0  0  0  0  0  0  0  0  0  0  0  0
    1.4631    1.0600    0.0000 H   0  0  0  0  0  0  0  0  0  0  0  0
    2.2460   -0.7500    0.0000 H   0  0  0  0  0  0  0  0  0  0  0  0
    2.8660   -1.3700    0.0000 H   0  0  0  0  0  0  0  0  0  0  0  0
    3.4860   -0.7500    0.0000 H   0  0  0  0  0  0  0  0  0  0  0  0
    1.6900    0.2131    0.0000 H   0  0  0  0  0  0  0  0  0  0  0  0
    4.1996   -0.2249    0.0000 H   0  0  0  0  0  0  0  0  0  0  0  0
    4.9966   -0.2249    0.0000 H   0  0  0  0  0  0  0  0  0  0  0  0
    6.0010    0.4400    0.0000 H   0  0  0  0  0  0  0  0  0  0  0  0
  1  6  1  0  0  0  0
  1 18  1  0  0  0  0
  2  3  1  0  0  0  0
  2  4  1  0  0  0  0
  2  5  1  0  0  0  0
  2  7  1  0  0  0  0
  3  6  1  0  0  0  0
  3  8  1  0  0  0  0
  3  9  1  0  0  0  0
  4 10  1  0  0  0  0
  4 11  1  0  0  0  0
  4 15  1  0  0  0  0
  5 12  1  0  0  0  0
  5 13  1  0  0  0  0
  5 14  1  0  0  0  0
  6 16  1  0  0  0  0
  6 17  1  0  0  0  0
M  END
> <PUBCHEM_COMPOUND_CID>
31260

> <PUBCHEM_COMPOUND_CANONICALIZED>
1

> <PUBCHEM_CACTVS_COMPLEXITY>
25.1

> <PUBCHEM_CACTVS_HBOND_ACCEPTOR>
1

> <PUBCHEM_CACTVS_HBOND_DONOR>
1

> <PUBCHEM_CACTVS_ROTATABLE_BOND>
2

> <PUBCHEM_CACTVS_SUBSKEYS>
AAADccBgIAAAAAAAAAAAAAAAAAAAAAAAAAAAAAAAAAAAAAAAAAAAGgAACAAADQCggAICAAAAAgAAAAAAAAAAAAAAAAAAAAAAAAAAEAAAAAAAQAAEAAAAAAAAAAAIAAAAAAAAAAAAAAAAAAAAAAAAAAAAAA==

> <PUBCHEM_IUPAC_OPENEYE_NAME>
3-methylbutan-1-ol

> <PUBCHEM_IUPAC_CAS_NAME>
3-methyl-1-butanol

> <PUBCHEM_IUPAC_NAME>
3-methylbutan-1-ol

> <PUBCHEM_IUPAC_SYSTEMATIC_NAME>
3-methylbutan-1-ol

> <PUBCHEM_IUPAC_TRADITIONAL_NAME>
3-methylbutan-1-ol

> <PUBCHEM_IUPAC_INCHI>
InChI=1S/C5H12O/c1-5(2)3-4-6/h5-6H,3-4H2,1-2H3

> <PUBCHEM_IUPAC_INCHIKEY>
PHTQWCKDNZKARW-UHFFFAOYSA-N

> <PUBCHEM_XLOGP3>
1.2

> <PUBCHEM_EXACT_MASS>
88.089

> <PUBCHEM_MOLECULAR_FORMULA>
C5H12O

> <PUBCHEM_MOLECULAR_WEIGHT>
88.15

> <PUBCHEM_OPENEYE_CAN_SMILES>
CC(C)CCO

> <PUBCHEM_OPENEYE_ISO_SMILES>
CC(C)CCO

> <PUBCHEM_CACTVS_TPSA>
20.2

> <PUBCHEM_MONOISOTOPIC_WEIGHT>
88.089

> <PUBCHEM_TOTAL_CHARGE>
0

> <PUBCHEM_HEAVY_ATOM_COUNT>
6

> <PUBCHEM_ATOM_DEF_STEREO_COUNT>
0

> <PUBCHEM_ATOM_UDEF_STEREO_COUNT>
0

> <PUBCHEM_BOND_DEF_STEREO_COUNT>
0

> <PUBCHEM_BOND_UDEF_STEREO_COUNT>
0

> <PUBCHEM_ISOTOPIC_ATOM_COUNT>
0

> <PUBCHEM_COMPONENT_COUNT>
1

> <PUBCHEM_CACTVS_TAUTO_COUNT>
-1

> <PUBCHEM_COORDINATE_TYPE>
1
5
255

$$$$
10430
  -OEChem-02201912152D

 17 16  0     0  0  0  0  0  0999 V2000
    5.4641    0.7500    0.0000 O   0  0  0  0  0  0  0  0  0  0  0  0
    4.5981   -0.7500    0.0000 O   0  0  0  0  0  0  0  0  0  0  0  0
    2.8660    0.2500    0.0000 C   0  0  0  0  0  0  0  0  0  0  0  0
    3.7320    0.7500    0.0000 C   0  0  0  0  0  0  0  0  0  0  0  0
    2.0000    0.7500    0.0000 C   0  0  0  0  0  0  0  0  0  0  0  0
    2.8660   -0.7500    0.0000 C   0  0  0  0  0  0  0  0  0  0  0  0
    4.5981    0.2500    0.0000 C   0  0  0  0  0  0  0  0  0  0  0  0
    2.8660    0.8700    0.0000 H   0  0  0  0  0  0  0  0  0  0  0  0
    4.1306    1.2250    0.0000 H   0  0  0  0  0  0  0  0  0  0  0  0
    3.3335    1.2250    0.0000 H   0  0  0  0  0  0  0  0  0  0  0  0
    2.2460   -0.7500    0.0000 H   0  0  0  0  0  0  0  0  0  0  0  0
    2.8660   -1.3700    0.0000 H   0  0  0  0  0  0  0  0  0  0  0  0
    3.4860   -0.7500    0.0000 H   0  0  0  0  0  0  0  0  0  0  0  0
    2.3100    1.2869    0.0000 H   0  0  0  0  0  0  0  0  0  0  0  0
    1.4631    1.0600    0.0000 H   0  0  0  0  0  0  0  0  0  0  0  0
    1.6900    0.2131    0.0000 H   0  0  0  0  0  0  0  0  0  0  0  0
    6.0010    0.4400    0.0000 H   0  0  0  0  0  0  0  0  0  0  0  0
  1  7  1  0  0  0  0
  1 17  1  0  0  0  0
  2  7  2  0  0  0  0
  3  4  1  0  0  0  0
  3  5  1  0  0  0  0
  3  6  1  0  0  0  0
  3  8  1  0  0  0  0
  4  7  1  0  0  0  0
  4  9  1  0  0  0  0
  4 10  1  0  0  0  0
  5 14  1  0  0  0  0
  5 15  1  0  0  0  0
  5 16  1  0  0  0  0
  6 11  1  0  0  0  0
  6 12  1  0  0  0  0
  6 13  1  0  0  0  0
M  END
> <PUBCHEM_COMPOUND_CID>
10430

> <PUBCHEM_COMPOUND_CANONICALIZED>
1

> <PUBCHEM_CACTVS_COMPLEXITY>
66.5

> <PUBCHEM_CACTVS_HBOND_ACCEPTOR>
2

> <PUBCHEM_CACTVS_HBOND_DONOR>
1

> <PUBCHEM_CACTVS_ROTATABLE_BOND>
2

> <PUBCHEM_CACTVS_SUBSKEYS>
AAADccBgMAAAAAAAAAAAAAAAAAAAAAAAAAAAAAAAAAAAAAAAAAAAGgAACAAADQCAgAACCAAAAgAIAACQCAAAAAAAAAAAAAEAAAAAABAAAAAAQAAEAAAAAAAAAAAIAAAAAAAAAAAAAAAAAAAAAAAAAAAAAA==

> <PUBCHEM_IUPAC_OPENEYE_NAME>
3-methylbutanoic acid

> <PUBCHEM_IUPAC_CAS_NAME>
3-methylbutanoic acid

> <PUBCHEM_IUPAC_NAME>
3-methylbutanoic acid

> <PUBCHEM_IUPAC_SYSTEMATIC_NAME>
3-methylbutanoic acid

> <PUBCHEM_IUPAC_TRADITIONAL_NAME>
3-methylbutyric acid

> <PUBCHEM_IUPAC_INCHI>
InChI=1S/C5H10O2/c1-4(2)3-5(6)7/h4H,3H2,1-2H3,(H,6,7)

> <PUBCHEM_IUPAC_INCHIKEY>
GWYFCOCPABKNJV-UHFFFAOYSA-N

> <PUBCHEM_XLOGP3>
1.2

> <PUBCHEM_EXACT_MASS>
102.068

> <PUBCHEM_MOLECULAR_FORMULA>
C5H10O2

> <PUBCHEM_MOLECULAR_WEIGHT>
102.133

> <PUBCHEM_OPENEYE_CAN_SMILES>
CC(C)CC(=O)O

> <PUBCHEM_OPENEYE_ISO_SMILES>
CC(C)CC(=O)O

> <PUBCHEM_CACTVS_TPSA>
37.3

> <PUBCHEM_MONOISOTOPIC_WEIGHT>
102.068

> <PUBCHEM_TOTAL_CHARGE>
0

> <PUBCHEM_HEAVY_ATOM_COUNT>
7

> <PUBCHEM_ATOM_DEF_STEREO_COUNT>
0

> <PUBCHEM_ATOM_UDEF_STEREO_COUNT>
0

> <PUBCHEM_BOND_DEF_STEREO_COUNT>
0

> <PUBCHEM_BOND_UDEF_STEREO_COUNT>
0

> <PUBCHEM_ISOTOPIC_ATOM_COUNT>
0

> <PUBCHEM_COMPONENT_COUNT>
1

> <PUBCHEM_CACTVS_TAUTO_COUNT>
-1

> <PUBCHEM_COORDINATE_TYPE>
1
5
255

$$$$
13357
  -OEChem-02201912152D

 20 19  0     1  0  0  0  0  0999 V2000
    5.4641   -0.2500    0.0000 O   0  0  0  0  0  0  0  0  0  0  0  0
    4.5981    1.2500    0.0000 O   0  0  0  0  0  0  0  0  0  0  0  0
    3.7320   -0.2500    0.0000 C   0  0  3  0  0  0  0  0  0  0  0  0
    2.8660    0.2500    0.0000 C   0  0  0  0  0  0  0  0  0  0  0  0
    3.7320   -1.2500    0.0000 C   0  0  0  0  0  0  0  0  0  0  0  0
    2.0000   -0.2500    0.0000 C   0  0  0  0  0  0  0  0  0  0  0  0
    4.5981    0.2500    0.0000 C   0  0  0  0  0  0  0  0  0  0  0  0
    6.3301    0.2500    0.0000 C   0  0  0  0  0  0  0  0  0  0  0  0
    4.4682   -0.6750    0.0000 H   0  0  0  0  0  0  0  0  0  0  0  0
    3.2646    0.7249    0.0000 H   0  0  0  0  0  0  0  0  0  0  0  0
    2.4675    0.7249    0.0000 H   0  0  0  0  0  0  0  0  0  0  0  0
    3.1120   -1.2500    0.0000 H   0  0  0  0  0  0  0  0  0  0  0  0
    3.7320   -1.8700    0.0000 H   0  0  0  0  0  0  0  0  0  0  0  0
    4.3520   -1.2500    0.0000 H   0  0  0  0  0  0  0  0  0  0  0  0
    1.6900    0.2869    0.0000 H   0  0  0  0  0  0  0  0  0  0  0  0
    1.4631   -0.5600    0.0000 H   0  0  0  0  0  0  0  0  0  0  0  0
    2.3100   -0.7869    0.0000 H   0  0  0  0  0  0  0  0  0  0  0  0
    6.6401   -0.2869    0.0000 H   0  0  0  0  0  0  0  0  0  0  0  0
    6.8671    0.5600    0.0000 H   0  0  0  0  0  0  0  0  0  0  0  0
    6.0201    0.7869    0.0000 H   0  0  0  0  0  0  0  0  0  0  0  0
  1  7  1  0  0  0  0
  1  8  1  0  0  0  0
  2  7  2  0  0  0  0
  3  4  1  0  0  0  0
  3  5  1  0  0  0  0
  3  7  1  0  0  0  0
  3  9  1  0  0  0  0
  4  6  1  0  0  0  0
  4 10  1  0  0  0  0
  4 11  1  0  0  0  0
  5 12  1  0  0  0  0
  5 13  1  0  0  0  0
  5 14  1  0  0  0  0
  6 15  1  0  0  0  0
  6 16  1  0  0  0  0
  6 17  1  0  0  0  0
  8 18  1  0  0  0  0
  8 19  1  0  0  0  0
  8 20  1  0  0  0  0
M  END
> <PUBCHEM_COMPOUND_CID>
13357

> <PUBCHEM_COMPOUND_CANONICALIZED>
1

> <PUBCHEM_CACTVS_COMPLEXITY>
78.6

> <PUBCHEM_CACTVS_HBOND_ACCEPTOR>
2

> <PUBCHEM_CACTVS_HBOND_DONOR>
0

> <PUBCHEM_CACTVS_ROTATABLE_BOND>
3

> <PUBCHEM_CACTVS_SUBSKEYS>
AAADccBgMAAAAAAAAAAAAAAAAAAAAAAAAAAAAAAAAAAAAAAAAAAAGgAAAAAADQCAgAICCAAABAAIAACQCAAAAAAAAAAAAAEAAAAAABAAAAAAAAAEAAAAAAAAAAAIAAAAAAAAAAAAAAAAAAAAAAAAAAAAAA==

> <PUBCHEM_IUPAC_OPENEYE_NAME>
methyl 2-methylbutanoate

> <PUBCHEM_IUPAC_CAS_NAME>
2-methylbutanoic acid methyl ester

> <PUBCHEM_IUPAC_NAME>
methyl 2-methylbutanoate

> <PUBCHEM_IUPAC_SYSTEMATIC_NAME>
methyl 2-methylbutanoate

> <PUBCHEM_IUPAC_TRADITIONAL_NAME>
2-methylbutyric acid methyl ester

> <PUBCHEM_IUPAC_INCHI>
InChI=1S/C6H12O2/c1-4-5(2)6(7)8-3/h5H,4H2,1-3H3

> <PUBCHEM_IUPAC_INCHIKEY>
OCWLYWIFNDCWRZ-UHFFFAOYSA-N

> <PUBCHEM_XLOGP3_AA>
1.5

> <PUBCHEM_EXACT_MASS>
116.084

> <PUBCHEM_MOLECULAR_FORMULA>
C6H12O2

> <PUBCHEM_MOLECULAR_WEIGHT>
116.16

> <PUBCHEM_OPENEYE_CAN_SMILES>
CCC(C)C(=O)OC

> <PUBCHEM_OPENEYE_ISO_SMILES>
CCC(C)C(=O)OC

> <PUBCHEM_CACTVS_TPSA>
26.3

> <PUBCHEM_MONOISOTOPIC_WEIGHT>
116.084

> <PUBCHEM_TOTAL_CHARGE>
0

> <PUBCHEM_HEAVY_ATOM_COUNT>
8

> <PUBCHEM_ATOM_DEF_STEREO_COUNT>
0

> <PUBCHEM_ATOM_UDEF_STEREO_COUNT>
1

> <PUBCHEM_BOND_DEF_STEREO_COUNT>
0

> <PUBCHEM_BOND_UDEF_STEREO_COUNT>
0

> <PUBCHEM_ISOTOPIC_ATOM_COUNT>
0

> <PUBCHEM_COMPONENT_COUNT>
1

> <PUBCHEM_CACTVS_TAUTO_COUNT>
-1

> <PUBCHEM_COORDINATE_TYPE>
1
5
255

> <PUBCHEM_BONDANNOTATIONS>
3  9  3

$$$$
11160
  -OEChem-02201912152D

 20 19  0     0  0  0  0  0  0999 V2000
    2.8660    0.7500    0.0000 O   0  0  0  0  0  0  0  0  0  0  0  0
    3.7320   -0.7500    0.0000 O   0  0  0  0  0  0  0  0  0  0  0  0
    5.4641    0.2500    0.0000 C   0  0  0  0  0  0  0  0  0  0  0  0
    4.5981    0.7500    0.0000 C   0  0  0  0  0  0  0  0  0  0  0  0
    6.3301    0.7500    0.0000 C   0  0  0  0  0  0  0  0  0  0  0  0
    5.4641   -0.7500    0.0000 C   0  0  0  0  0  0  0  0  0  0  0  0
    3.7320    0.2500    0.0000 C   0  0  0  0  0  0  0  0  0  0  0  0
    2.0000    0.2500    0.0000 C   0  0  0  0  0  0  0  0  0  0  0  0
    5.4641    0.8700    0.0000 H   0  0  0  0  0  0  0  0  0  0  0  0
    4.9966    1.2250    0.0000 H   0  0  0  0  0  0  0  0  0  0  0  0
    4.1996    1.2250    0.0000 H   0  0  0  0  0  0  0  0  0  0  0  0
    6.6401    0.2131    0.0000 H   0  0  0  0  0  0  0  0  0  0  0  0
    6.8671    1.0600    0.0000 H   0  0  0  0  0  0  0  0  0  0  0  0
    6.0201    1.2869    0.0000 H   0  0  0  0  0  0  0  0  0  0  0  0
    4.8441   -0.7500    0.0000 H   0  0  0  0  0  0  0  0  0  0  0  0
    5.4641   -1.3700    0.0000 H   0  0  0  0  0  0  0  0  0  0  0  0
    6.0841   -0.7500    0.0000 H   0  0  0  0  0  0  0  0  0  0  0  0
    1.6900    0.7869    0.0000 H   0  0  0  0  0  0  0  0  0  0  0  0
    1.4631   -0.0600    0.0000 H   0  0  0  0  0  0  0  0  0  0  0  0
    2.3100   -0.2869    0.0000 H   0  0  0  0  0  0  0  0  0  0  0  0
  1  7  1  0  0  0  0
  1  8  1  0  0  0  0
  2  7  2  0  0  0  0
  3  4  1  0  0  0  0
  3  5  1  0  0  0  0
  3  6  1  0  0  0  0
  3  9  1  0  0  0  0
  4  7  1  0  0  0  0
  4 10  1  0  0  0  0
  4 11  1  0  0  0  0
  5 12  1  0  0  0  0
  5 13  1  0  0  0  0
  5 14  1  0  0  0  0
  6 15  1  0  0  0  0
  6 16  1  0  0  0  0
  6 17  1  0  0  0  0
  8 18  1  0  0  0  0
  8 19  1  0  0  0  0
  8 20  1  0  0  0  0
M  END
> <PUBCHEM_COMPOUND_CID>
11160

> <PUBCHEM_COMPOUND_CANONICALIZED>
1

> <PUBCHEM_CACTVS_COMPLEXITY>
76.6

> <PUBCHEM_CACTVS_HBOND_ACCEPTOR>
2

> <PUBCHEM_CACTVS_HBOND_DONOR>
0

> <PUBCHEM_CACTVS_ROTATABLE_BOND>
3

> <PUBCHEM_CACTVS_SUBSKEYS>
AAADccBgMAAAAAAAAAAAAAAAAAAAAAAAAAAAAAAAAAAAAAAAAAAAGgAAAAAADQCAgAICCAAABAAIAACQCAAAAAAAAAAAAAEAAAAAABAAAAAAAAAEAAAAAAAAAAAIAAAAAAAAAAAAAAAAAAAAAAAAAAAAAA==

> <PUBCHEM_IUPAC_OPENEYE_NAME>
methyl 3-methylbutanoate

> <PUBCHEM_IUPAC_CAS_NAME>
3-methylbutanoic acid methyl ester

> <PUBCHEM_IUPAC_NAME>
methyl 3-methylbutanoate

> <PUBCHEM_IUPAC_SYSTEMATIC_NAME>
methyl 3-methylbutanoate

> <PUBCHEM_IUPAC_TRADITIONAL_NAME>
3-methylbutyric acid methyl ester

> <PUBCHEM_IUPAC_INCHI>
InChI=1S/C6H12O2/c1-5(2)4-6(7)8-3/h5H,4H2,1-3H3

> <PUBCHEM_IUPAC_INCHIKEY>
OQAGVSWESNCJJT-UHFFFAOYSA-N

> <PUBCHEM_XLOGP3>
1.8

> <PUBCHEM_EXACT_MASS>
116.084

> <PUBCHEM_MOLECULAR_FORMULA>
C6H12O2

> <PUBCHEM_MOLECULAR_WEIGHT>
116.16

> <PUBCHEM_OPENEYE_CAN_SMILES>
CC(C)CC(=O)OC

> <PUBCHEM_OPENEYE_ISO_SMILES>
CC(C)CC(=O)OC

> <PUBCHEM_CACTVS_TPSA>
26.3

> <PUBCHEM_MONOISOTOPIC_WEIGHT>
116.084

> <PUBCHEM_TOTAL_CHARGE>
0

> <PUBCHEM_HEAVY_ATOM_COUNT>
8

> <PUBCHEM_ATOM_DEF_STEREO_COUNT>
0

> <PUBCHEM_ATOM_UDEF_STEREO_COUNT>
0

> <PUBCHEM_BOND_DEF_STEREO_COUNT>
0

> <PUBCHEM_BOND_UDEF_STEREO_COUNT>
0

> <PUBCHEM_ISOTOPIC_ATOM_COUNT>
0

> <PUBCHEM_COMPONENT_COUNT>
1

> <PUBCHEM_CACTVS_TAUTO_COUNT>
-1

> <PUBCHEM_COORDINATE_TYPE>
1
5
255

$$$$
14090
  -OEChem-02201912152D

 16 16  0     0  0  0  0  0  0999 V2000
    2.0000    1.2500    0.0000 O   0  0  0  0  0  0  0  0  0  0  0  0
    3.7320    2.2500    0.0000 O   0  0  0  0  0  0  0  0  0  0  0  0
    2.8660   -0.2500    0.0000 C   0  0  0  0  0  0  0  0  0  0  0  0
    2.0000   -0.7500    0.0000 C   0  0  0  0  0  0  0  0  0  0  0  0
    3.7320   -0.7500    0.0000 C   0  0  0  0  0  0  0  0  0  0  0  0
    2.0000   -1.7500    0.0000 C   0  0  0  0  0  0  0  0  0  0  0  0
    3.7320   -1.7500    0.0000 C   0  0  0  0  0  0  0  0  0  0  0  0
    2.8660   -2.2500    0.0000 C   0  0  0  0  0  0  0  0  0  0  0  0
    2.8660    0.7500    0.0000 C   0  0  0  0  0  0  0  0  0  0  0  0
    3.7320    1.2500    0.0000 C   0  0  0  0  0  0  0  0  0  0  0  0
    1.4631   -0.4400    0.0000 H   0  0  0  0  0  0  0  0  0  0  0  0
    4.2690   -0.4400    0.0000 H   0  0  0  0  0  0  0  0  0  0  0  0
    1.4631   -2.0600    0.0000 H   0  0  0  0  0  0  0  0  0  0  0  0
    4.2690   -2.0600    0.0000 H   0  0  0  0  0  0  0  0  0  0  0  0
    2.8660   -2.8700    0.0000 H   0  0  0  0  0  0  0  0  0  0  0  0
    4.2690    0.9400    0.0000 H   0  0  0  0  0  0  0  0  0  0  0  0
  1  9  2  0  0  0  0
  2 10  2  0  0  0  0
  3  4  2  0  0  0  0
  3  5  1  0  0  0  0
  3  9  1  0  0  0  0
  4  6  1  0  0  0  0
  4 11  1  0  0  0  0
  5  7  2  0  0  0  0
  5 12  1  0  0  0  0
  6  8  2  0  0  0  0
  6 13  1  0  0  0  0
  7  8  1  0  0  0  0
  7 14  1  0  0  0  0
  8 15  1  0  0  0  0
  9 10  1  0  0  0  0
 10 16  1  0  0  0  0
M  END
> <PUBCHEM_COMPOUND_CID>
14090

> <PUBCHEM_COMPOUND_CANONICALIZED>
1

> <PUBCHEM_CACTVS_COMPLEXITY>
134

> <PUBCHEM_CACTVS_HBOND_ACCEPTOR>
2

> <PUBCHEM_CACTVS_HBOND_DONOR>
0

> <PUBCHEM_CACTVS_ROTATABLE_BOND>
2

> <PUBCHEM_CACTVS_SUBSKEYS>
AAADcYBwMAAAAAAAAAAAAAAAAAAAAAAAAAAwAAAAAAAAAAABAAAAGgAAAAAADASgmAIwAIAAAACIAqhSgAACAAAkAAAIiAEAAMgIIDKAFRCAIQAggAAIiYcIiICOAAAAAAAAAAAAAAAAAAAAAAAAAAAAAA==

> <PUBCHEM_IUPAC_OPENEYE_NAME>
2-oxo-2-phenyl-acetaldehyde

> <PUBCHEM_IUPAC_CAS_NAME>
2-oxo-2-phenylacetaldehyde

> <PUBCHEM_IUPAC_NAME>
2-oxo-2-phenylacetaldehyde

> <PUBCHEM_IUPAC_SYSTEMATIC_NAME>
2-oxidanylidene-2-phenyl-ethanal

> <PUBCHEM_IUPAC_TRADITIONAL_NAME>
2-keto-2-phenyl-acetaldehyde

> <PUBCHEM_IUPAC_INCHI>
InChI=1S/C8H6O2/c9-6-8(10)7-4-2-1-3-5-7/h1-6H

> <PUBCHEM_IUPAC_INCHIKEY>
OJUGVDODNPJEEC-UHFFFAOYSA-N

> <PUBCHEM_XLOGP3>
1.7

> <PUBCHEM_EXACT_MASS>
134.037

> <PUBCHEM_MOLECULAR_FORMULA>
C8H6O2

> <PUBCHEM_MOLECULAR_WEIGHT>
134.134

> <PUBCHEM_OPENEYE_CAN_SMILES>
C1=CC=C(C=C1)C(=O)C=O

> <PUBCHEM_OPENEYE_ISO_SMILES>
C1=CC=C(C=C1)C(=O)C=O

> <PUBCHEM_CACTVS_TPSA>
34.1

> <PUBCHEM_MONOISOTOPIC_WEIGHT>
134.037

> <PUBCHEM_TOTAL_CHARGE>
0

> <PUBCHEM_HEAVY_ATOM_COUNT>
10

> <PUBCHEM_ATOM_DEF_STEREO_COUNT>
0

> <PUBCHEM_ATOM_UDEF_STEREO_COUNT>
0

> <PUBCHEM_BOND_DEF_STEREO_COUNT>
0

> <PUBCHEM_BOND_UDEF_STEREO_COUNT>
0

> <PUBCHEM_ISOTOPIC_ATOM_COUNT>
0

> <PUBCHEM_COMPONENT_COUNT>
1

> <PUBCHEM_CACTVS_TAUTO_COUNT>
1

> <PUBCHEM_COORDINATE_TYPE>
1
5
255

> <PUBCHEM_BONDANNOTATIONS>
3  4  8
3  5  8
4  6  8
5  7  8
6  8  8
7  8  8

$$$$
998
  -OEChem-02201912152D

 17 17  0     0  0  0  0  0  0999 V2000
    3.7320    2.2500    0.0000 O   0  0  0  0  0  0  0  0  0  0  0  0
    2.8660   -0.2500    0.0000 C   0  0  0  0  0  0  0  0  0  0  0  0
    2.8660    0.7500    0.0000 C   0  0  0  0  0  0  0  0  0  0  0  0
    3.7320   -0.7500    0.0000 C   0  0  0  0  0  0  0  0  0  0  0  0
    2.0000   -0.7500    0.0000 C   0  0  0  0  0  0  0  0  0  0  0  0
    3.7320   -1.7500    0.0000 C   0  0  0  0  0  0  0  0  0  0  0  0
    2.0000   -1.7500    0.0000 C   0  0  0  0  0  0  0  0  0  0  0  0
    2.8660   -2.2500    0.0000 C   0  0  0  0  0  0  0  0  0  0  0  0
    3.7320    1.2500    0.0000 C   0  0  0  0  0  0  0  0  0  0  0  0
    2.6540    1.3326    0.0000 H   0  0  0  0  0  0  0  0  0  0  0  0
    2.2554    0.6423    0.0000 H   0  0  0  0  0  0  0  0  0  0  0  0
    4.2690   -0.4400    0.0000 H   0  0  0  0  0  0  0  0  0  0  0  0
    1.4631   -0.4400    0.0000 H   0  0  0  0  0  0  0  0  0  0  0  0
    4.2690   -2.0600    0.0000 H   0  0  0  0  0  0  0  0  0  0  0  0
    1.4631   -2.0600    0.0000 H   0  0  0  0  0  0  0  0  0  0  0  0
    2.8660   -2.8700    0.0000 H   0  0  0  0  0  0  0  0  0  0  0  0
    4.2690    0.9400    0.0000 H   0  0  0  0  0  0  0  0  0  0  0  0
  1  9  2  0  0  0  0
  2  3  1  0  0  0  0
  2  4  2  0  0  0  0
  2  5  1  0  0  0  0
  3  9  1  0  0  0  0
  3 10  1  0  0  0  0
  3 11  1  0  0  0  0
  4  6  1  0  0  0  0
  4 12  1  0  0  0  0
  5  7  2  0  0  0  0
  5 13  1  0  0  0  0
  6  8  2  0  0  0  0
  6 14  1  0  0  0  0
  7  8  1  0  0  0  0
  7 15  1  0  0  0  0
  8 16  1  0  0  0  0
  9 17  1  0  0  0  0
M  END
> <PUBCHEM_COMPOUND_CID>
998

> <PUBCHEM_COMPOUND_CANONICALIZED>
1

> <PUBCHEM_CACTVS_COMPLEXITY>
82.6

> <PUBCHEM_CACTVS_HBOND_ACCEPTOR>
1

> <PUBCHEM_CACTVS_HBOND_DONOR>
0

> <PUBCHEM_CACTVS_ROTATABLE_BOND>
2

> <PUBCHEM_CACTVS_SUBSKEYS>
AAADccBwIAAAAAAAAAAAAAAAAAAAAAAAAAAwAAAAAAAAAAABAAAAGgAAAAAADACgmAIwAIAAAACIAihSgAACAAAgAAAIiAEAAIgIIDKAFRCAIAAggAAIiAcIiICOAAAAAAAAAAAAAAAAAAAAAAAAAAAAAA==

> <PUBCHEM_IUPAC_OPENEYE_NAME>
2-phenylacetaldehyde

> <PUBCHEM_IUPAC_CAS_NAME>
2-phenylacetaldehyde

> <PUBCHEM_IUPAC_NAME>
2-phenylacetaldehyde

> <PUBCHEM_IUPAC_SYSTEMATIC_NAME>
2-phenylethanal

> <PUBCHEM_IUPAC_TRADITIONAL_NAME>
2-phenylacetaldehyde

> <PUBCHEM_IUPAC_INCHI>
InChI=1S/C8H8O/c9-7-6-8-4-2-1-3-5-8/h1-5,7H,6H2

> <PUBCHEM_IUPAC_INCHIKEY>
DTUQWGWMVIHBKE-UHFFFAOYSA-N

> <PUBCHEM_XLOGP3>
1.8

> <PUBCHEM_EXACT_MASS>
120.058

> <PUBCHEM_MOLECULAR_FORMULA>
C8H8O

> <PUBCHEM_MOLECULAR_WEIGHT>
120.151

> <PUBCHEM_OPENEYE_CAN_SMILES>
C1=CC=C(C=C1)CC=O

> <PUBCHEM_OPENEYE_ISO_SMILES>
C1=CC=C(C=C1)CC=O

> <PUBCHEM_CACTVS_TPSA>
17.1

> <PUBCHEM_MONOISOTOPIC_WEIGHT>
120.058

> <PUBCHEM_TOTAL_CHARGE>
0

> <PUBCHEM_HEAVY_ATOM_COUNT>
9

> <PUBCHEM_ATOM_DEF_STEREO_COUNT>
0

> <PUBCHEM_ATOM_UDEF_STEREO_COUNT>
0

> <PUBCHEM_BOND_DEF_STEREO_COUNT>
0

> <PUBCHEM_BOND_UDEF_STEREO_COUNT>
0

> <PUBCHEM_ISOTOPIC_ATOM_COUNT>
0

> <PUBCHEM_COMPONENT_COUNT>
1

> <PUBCHEM_CACTVS_TAUTO_COUNT>
-1

> <PUBCHEM_COORDINATE_TYPE>
1
5
255

> <PUBCHEM_BONDANNOTATIONS>
2  4  8
2  5  8
4  6  8
5  7  8
6  8  8
7  8  8

$$$$
6054
  -OEChem-02201912152D

 19 19  0     0  0  0  0  0  0999 V2000
    3.7320    2.0950    0.0000 O   0  0  0  0  0  0  0  0  0  0  0  0
    2.8660    0.5950    0.0000 C   0  0  0  0  0  0  0  0  0  0  0  0
    2.8660   -0.4050    0.0000 C   0  0  0  0  0  0  0  0  0  0  0  0
    3.7320    1.0950    0.0000 C   0  0  0  0  0  0  0  0  0  0  0  0
    3.7320   -0.9050    0.0000 C   0  0  0  0  0  0  0  0  0  0  0  0
    2.0000   -0.9050    0.0000 C   0  0  0  0  0  0  0  0  0  0  0  0
    3.7320   -1.9050    0.0000 C   0  0  0  0  0  0  0  0  0  0  0  0
    2.0000   -1.9050    0.0000 C   0  0  0  0  0  0  0  0  0  0  0  0
    2.8660   -2.4050    0.0000 C   0  0  0  0  0  0  0  0  0  0  0  0
    2.6540    1.1776    0.0000 H   0  0  0  0  0  0  0  0  0  0  0  0
    2.2554    0.4873    0.0000 H   0  0  0  0  0  0  0  0  0  0  0  0
    3.9441    0.5124    0.0000 H   0  0  0  0  0  0  0  0  0  0  0  0
    4.3426    1.2027    0.0000 H   0  0  0  0  0  0  0  0  0  0  0  0
    4.2690   -0.5950    0.0000 H   0  0  0  0  0  0  0  0  0  0  0  0
    1.4631   -0.5950    0.0000 H   0  0  0  0  0  0  0  0  0  0  0  0
    4.2690   -2.2150    0.0000 H   0  0  0  0  0  0  0  0  0  0  0  0
    1.4631   -2.2150    0.0000 H   0  0  0  0  0  0  0  0  0  0  0  0
    2.8660   -3.0250    0.0000 H   0  0  0  0  0  0  0  0  0  0  0  0
    4.2690    2.4050    0.0000 H   0  0  0  0  0  0  0  0  0  0  0  0
  1  4  1  0  0  0  0
  1 19  1  0  0  0  0
  2  3  1  0  0  0  0
  2  4  1  0  0  0  0
  2 10  1  0  0  0  0
  2 11  1  0  0  0  0
  3  5  2  0  0  0  0
  3  6  1  0  0  0  0
  4 12  1  0  0  0  0
  4 13  1  0  0  0  0
  5  7  1  0  0  0  0
  5 14  1  0  0  0  0
  6  8  2  0  0  0  0
  6 15  1  0  0  0  0
  7  9  2  0  0  0  0
  7 16  1  0  0  0  0
  8  9  1  0  0  0  0
  8 17  1  0  0  0  0
  9 18  1  0  0  0  0
M  END
> <PUBCHEM_COMPOUND_CID>
6054

> <PUBCHEM_COMPOUND_CANONICALIZED>
1

> <PUBCHEM_CACTVS_COMPLEXITY>
65

> <PUBCHEM_CACTVS_HBOND_ACCEPTOR>
1

> <PUBCHEM_CACTVS_HBOND_DONOR>
1

> <PUBCHEM_CACTVS_ROTATABLE_BOND>
2

> <PUBCHEM_CACTVS_SUBSKEYS>
AAADccBwIAAAAAAAAAAAAAAAAAAAAAAAAAAwAAAAAAAAAAABAAAAGgAACAAADACgmAIwAIAAAgCAAiBCAAACAAAgAAAIiAAAAIgIMCKAERCAYAAkwAEIiAeAwKAOAAAAAAAAAAAAAAAAAAAAAAAAAAAAAA==

> <PUBCHEM_IUPAC_OPENEYE_NAME>
2-phenylethanol

> <PUBCHEM_IUPAC_CAS_NAME>
2-phenylethanol

> <PUBCHEM_IUPAC_NAME>
2-phenylethanol

> <PUBCHEM_IUPAC_SYSTEMATIC_NAME>
2-phenylethanol

> <PUBCHEM_IUPAC_TRADITIONAL_NAME>
2-phenylethanol

> <PUBCHEM_IUPAC_INCHI>
InChI=1S/C8H10O/c9-7-6-8-4-2-1-3-5-8/h1-5,9H,6-7H2

> <PUBCHEM_IUPAC_INCHIKEY>
WRMNZCZEMHIOCP-UHFFFAOYSA-N

> <PUBCHEM_XLOGP3>
1.4

> <PUBCHEM_EXACT_MASS>
122.073

> <PUBCHEM_MOLECULAR_FORMULA>
C8H10O

> <PUBCHEM_MOLECULAR_WEIGHT>
122.167

> <PUBCHEM_OPENEYE_CAN_SMILES>
C1=CC=C(C=C1)CCO

> <PUBCHEM_OPENEYE_ISO_SMILES>
C1=CC=C(C=C1)CCO

> <PUBCHEM_CACTVS_TPSA>
20.2

> <PUBCHEM_MONOISOTOPIC_WEIGHT>
122.073

> <PUBCHEM_TOTAL_CHARGE>
0

> <PUBCHEM_HEAVY_ATOM_COUNT>
9

> <PUBCHEM_ATOM_DEF_STEREO_COUNT>
0

> <PUBCHEM_ATOM_UDEF_STEREO_COUNT>
0

> <PUBCHEM_BOND_DEF_STEREO_COUNT>
0

> <PUBCHEM_BOND_UDEF_STEREO_COUNT>
0

> <PUBCHEM_ISOTOPIC_ATOM_COUNT>
0

> <PUBCHEM_COMPONENT_COUNT>
1

> <PUBCHEM_CACTVS_TAUTO_COUNT>
-1

> <PUBCHEM_COORDINATE_TYPE>
1
5
255

> <PUBCHEM_BONDANNOTATIONS>
3  5  8
3  6  8
5  7  8
6  8  8
7  9  8
8  9  8

$$$$
7711
  -OEChem-02201912152D

 21 21  0     0  0  0  0  0  0999 V2000
    3.7320    1.5000    0.0000 O   0  0  0  0  0  0  0  0  0  0  0  0
    4.5981    3.0000    0.0000 O   0  0  0  0  0  0  0  0  0  0  0  0
    2.8660    0.0000    0.0000 C   0  0  0  0  0  0  0  0  0  0  0  0
    2.8660   -1.0000    0.0000 C   0  0  0  0  0  0  0  0  0  0  0  0
    3.7320    0.5000    0.0000 C   0  0  0  0  0  0  0  0  0  0  0  0
    3.7320   -1.5000    0.0000 C   0  0  0  0  0  0  0  0  0  0  0  0
    2.0000   -1.5000    0.0000 C   0  0  0  0  0  0  0  0  0  0  0  0
    3.7320   -2.5000    0.0000 C   0  0  0  0  0  0  0  0  0  0  0  0
    2.0000   -2.5000    0.0000 C   0  0  0  0  0  0  0  0  0  0  0  0
    2.8660   -3.0000    0.0000 C   0  0  0  0  0  0  0  0  0  0  0  0
    4.5981    2.0000    0.0000 C   0  0  0  0  0  0  0  0  0  0  0  0
    2.6540    0.5826    0.0000 H   0  0  0  0  0  0  0  0  0  0  0  0
    2.2554   -0.1077    0.0000 H   0  0  0  0  0  0  0  0  0  0  0  0
    3.9441   -0.0826    0.0000 H   0  0  0  0  0  0  0  0  0  0  0  0
    4.3426    0.6077    0.0000 H   0  0  0  0  0  0  0  0  0  0  0  0
    4.2690   -1.1900    0.0000 H   0  0  0  0  0  0  0  0  0  0  0  0
    1.4631   -1.1900    0.0000 H   0  0  0  0  0  0  0  0  0  0  0  0
    4.2690   -2.8100    0.0000 H   0  0  0  0  0  0  0  0  0  0  0  0
    1.4631   -2.8100    0.0000 H   0  0  0  0  0  0  0  0  0  0  0  0
    2.8660   -3.6200    0.0000 H   0  0  0  0  0  0  0  0  0  0  0  0
    5.1350    1.6900    0.0000 H   0  0  0  0  0  0  0  0  0  0  0  0
  1  5  1  0  0  0  0
  1 11  1  0  0  0  0
  2 11  2  0  0  0  0
  3  4  1  0  0  0  0
  3  5  1  0  0  0  0
  3 12  1  0  0  0  0
  3 13  1  0  0  0  0
  4  6  2  0  0  0  0
  4  7  1  0  0  0  0
  5 14  1  0  0  0  0
  5 15  1  0  0  0  0
  6  8  1  0  0  0  0
  6 16  1  0  0  0  0
  7  9  2  0  0  0  0
  7 17  1  0  0  0  0
  8 10  2  0  0  0  0
  8 18  1  0  0  0  0
  9 10  1  0  0  0  0
  9 19  1  0  0  0  0
 10 20  1  0  0  0  0
 11 21  1  0  0  0  0
M  END
> <PUBCHEM_COMPOUND_CID>
7711

> <PUBCHEM_COMPOUND_CANONICALIZED>
1

> <PUBCHEM_CACTVS_COMPLEXITY>
106

> <PUBCHEM_CACTVS_HBOND_ACCEPTOR>
2

> <PUBCHEM_CACTVS_HBOND_DONOR>
0

> <PUBCHEM_CACTVS_ROTATABLE_BOND>
4

> <PUBCHEM_CACTVS_SUBSKEYS>
AAADccBwMAAAAAAAAAAAAAAAAAAAAAAAAAAwAAAAAAAAAAABAAAAGgAAAAAADACgmAMwCIAABACIAiBCiAACAAAgAAAIiAAAAIgIICKAERCAIAAkwAEIiAeAwKAOAAAAAAAAAAAAAAAAAAAAAAAAAAAAAA==

> <PUBCHEM_IUPAC_OPENEYE_NAME>
2-phenylethyl formate

> <PUBCHEM_IUPAC_CAS_NAME>
formic acid 2-phenylethyl ester

> <PUBCHEM_IUPAC_NAME>
2-phenylethyl formate

> <PUBCHEM_IUPAC_SYSTEMATIC_NAME>
2-phenylethyl methanoate

> <PUBCHEM_IUPAC_TRADITIONAL_NAME>
formic acid phenethyl ester

> <PUBCHEM_IUPAC_INCHI>
InChI=1S/C9H10O2/c10-8-11-7-6-9-4-2-1-3-5-9/h1-5,8H,6-7H2

> <PUBCHEM_IUPAC_INCHIKEY>
IKDIJXDZEYHZSD-UHFFFAOYSA-N

> <PUBCHEM_XLOGP3_AA>
2.1

> <PUBCHEM_EXACT_MASS>
150.068

> <PUBCHEM_MOLECULAR_FORMULA>
C9H10O2

> <PUBCHEM_MOLECULAR_WEIGHT>
150.177

> <PUBCHEM_OPENEYE_CAN_SMILES>
C1=CC=C(C=C1)CCOC=O

> <PUBCHEM_OPENEYE_ISO_SMILES>
C1=CC=C(C=C1)CCOC=O

> <PUBCHEM_CACTVS_TPSA>
26.3

> <PUBCHEM_MONOISOTOPIC_WEIGHT>
150.068

> <PUBCHEM_TOTAL_CHARGE>
0

> <PUBCHEM_HEAVY_ATOM_COUNT>
11

> <PUBCHEM_ATOM_DEF_STEREO_COUNT>
0

> <PUBCHEM_ATOM_UDEF_STEREO_COUNT>
0

> <PUBCHEM_BOND_DEF_STEREO_COUNT>
0

> <PUBCHEM_BOND_UDEF_STEREO_COUNT>
0

> <PUBCHEM_ISOTOPIC_ATOM_COUNT>
0

> <PUBCHEM_COMPONENT_COUNT>
1

> <PUBCHEM_CACTVS_TAUTO_COUNT>
-1

> <PUBCHEM_COORDINATE_TYPE>
1
5
255

> <PUBCHEM_BONDANNOTATIONS>
4  6  8
4  7  8
6  8  8
7  9  8
8  10  8
9  10  8

$$$$
7651
  -OEChem-02201912152D

 30 30  0     0  0  0  0  0  0999 V2000
    3.7320    0.2500    0.0000 O   0  0  0  0  0  0  0  0  0  0  0  0
    2.8660    1.7500    0.0000 O   0  0  0  0  0  0  0  0  0  0  0  0
    4.5981    2.7500    0.0000 C   0  0  0  0  0  0  0  0  0  0  0  0
    4.5981    1.7500    0.0000 C   0  0  0  0  0  0  0  0  0  0  0  0
    5.4641    3.2500    0.0000 C   0  0  0  0  0  0  0  0  0  0  0  0
    3.7320    3.2500    0.0000 C   0  0  0  0  0  0  0  0  0  0  0  0
    3.7320    1.2500    0.0000 C   0  0  0  0  0  0  0  0  0  0  0  0
    2.8660   -0.2500    0.0000 C   0  0  0  0  0  0  0  0  0  0  0  0
    2.8660   -1.2500    0.0000 C   0  0  0  0  0  0  0  0  0  0  0  0
    3.7320   -1.7500    0.0000 C   0  0  0  0  0  0  0  0  0  0  0  0
    2.0000   -1.7500    0.0000 C   0  0  0  0  0  0  0  0  0  0  0  0
    3.7320   -2.7500    0.0000 C   0  0  0  0  0  0  0  0  0  0  0  0
    2.0000   -2.7500    0.0000 C   0  0  0  0  0  0  0  0  0  0  0  0
    2.8660   -3.2500    0.0000 C   0  0  0  0  0  0  0  0  0  0  0  0
    4.5981    3.3700    0.0000 H   0  0  0  0  0  0  0  0  0  0  0  0
    4.8101    1.1674    0.0000 H   0  0  0  0  0  0  0  0  0  0  0  0
    5.2087    1.8577    0.0000 H   0  0  0  0  0  0  0  0  0  0  0  0
    5.7741    2.7131    0.0000 H   0  0  0  0  0  0  0  0  0  0  0  0
    6.0010    3.5600    0.0000 H   0  0  0  0  0  0  0  0  0  0  0  0
    5.1541    3.7869    0.0000 H   0  0  0  0  0  0  0  0  0  0  0  0
    4.0420    3.7869    0.0000 H   0  0  0  0  0  0  0  0  0  0  0  0
    3.1951    3.5600    0.0000 H   0  0  0  0  0  0  0  0  0  0  0  0
    3.4220    2.7131    0.0000 H   0  0  0  0  0  0  0  0  0  0  0  0
    2.6540    0.3326    0.0000 H   0  0  0  0  0  0  0  0  0  0  0  0
    2.2554   -0.3577    0.0000 H   0  0  0  0  0  0  0  0  0  0  0  0
    4.2690   -1.4400    0.0000 H   0  0  0  0  0  0  0  0  0  0  0  0
    1.4631   -1.4400    0.0000 H   0  0  0  0  0  0  0  0  0  0  0  0
    4.2690   -3.0600    0.0000 H   0  0  0  0  0  0  0  0  0  0  0  0
    1.4631   -3.0600    0.0000 H   0  0  0  0  0  0  0  0  0  0  0  0
    2.8660   -3.8700    0.0000 H   0  0  0  0  0  0  0  0  0  0  0  0
  1  7  1  0  0  0  0
  1  8  1  0  0  0  0
  2  7  2  0  0  0  0
  3  4  1  0  0  0  0
  3  5  1  0  0  0  0
  3  6  1  0  0  0  0
  3 15  1  0  0  0  0
  4  7  1  0  0  0  0
  4 16  1  0  0  0  0
  4 17  1  0  0  0  0
  5 18  1  0  0  0  0
  5 19  1  0  0  0  0
  5 20  1  0  0  0  0
  6 21  1  0  0  0  0
  6 22  1  0  0  0  0
  6 23  1  0  0  0  0
  8  9  1  0  0  0  0
  8 24  1  0  0  0  0
  8 25  1  0  0  0  0
  9 10  2  0  0  0  0
  9 11  1  0  0  0  0
 10 12  1  0  0  0  0
 10 26  1  0  0  0  0
 11 13  2  0  0  0  0
 11 27  1  0  0  0  0
 12 14  2  0  0  0  0
 12 28  1  0  0  0  0
 13 14  1  0  0  0  0
 13 29  1  0  0  0  0
 14 30  1  0  0  0  0
M  END
> <PUBCHEM_COMPOUND_CID>
7651

> <PUBCHEM_COMPOUND_CANONICALIZED>
1

> <PUBCHEM_CACTVS_COMPLEXITY>
169

> <PUBCHEM_CACTVS_HBOND_ACCEPTOR>
2

> <PUBCHEM_CACTVS_HBOND_DONOR>
0

> <PUBCHEM_CACTVS_ROTATABLE_BOND>
5

> <PUBCHEM_CACTVS_SUBSKEYS>
AAADceBwMAAAAAAAAAAAAAAAAAAAAAAAAAAwAAAAAAAAAAABAAAAGgAAAAAADQCgmAIyCIAABACIAiDSCAACAAAgAAAIiAEACIgIJjKAMRiCMAAkwAEIqAeAwCAOAAAAAAAAAAAAAAAAAAAAAAAAAAAAAA==

> <PUBCHEM_IUPAC_OPENEYE_NAME>
benzyl 3-methylbutanoate

> <PUBCHEM_IUPAC_CAS_NAME>
3-methylbutanoic acid (phenylmethyl) ester

> <PUBCHEM_IUPAC_NAME>
benzyl 3-methylbutanoate

> <PUBCHEM_IUPAC_SYSTEMATIC_NAME>
(phenylmethyl) 3-methylbutanoate

> <PUBCHEM_IUPAC_TRADITIONAL_NAME>
3-methylbutyric acid benzyl ester

> <PUBCHEM_IUPAC_INCHI>
InChI=1S/C12H16O2/c1-10(2)8-12(13)14-9-11-6-4-3-5-7-11/h3-7,10H,8-9H2,1-2H3

> <PUBCHEM_IUPAC_INCHIKEY>
HVJKZICIMIWFCP-UHFFFAOYSA-N

> <PUBCHEM_XLOGP3>
3.3

> <PUBCHEM_EXACT_MASS>
192.115

> <PUBCHEM_MOLECULAR_FORMULA>
C12H16O2

> <PUBCHEM_MOLECULAR_WEIGHT>
192.258

> <PUBCHEM_OPENEYE_CAN_SMILES>
CC(C)CC(=O)OCC1=CC=CC=C1

> <PUBCHEM_OPENEYE_ISO_SMILES>
CC(C)CC(=O)OCC1=CC=CC=C1

> <PUBCHEM_CACTVS_TPSA>
26.3

> <PUBCHEM_MONOISOTOPIC_WEIGHT>
192.115

> <PUBCHEM_TOTAL_CHARGE>
0

> <PUBCHEM_HEAVY_ATOM_COUNT>
14

> <PUBCHEM_ATOM_DEF_STEREO_COUNT>
0

> <PUBCHEM_ATOM_UDEF_STEREO_COUNT>
0

> <PUBCHEM_BOND_DEF_STEREO_COUNT>
0

> <PUBCHEM_BOND_UDEF_STEREO_COUNT>
0

> <PUBCHEM_ISOTOPIC_ATOM_COUNT>
0

> <PUBCHEM_COMPONENT_COUNT>
1

> <PUBCHEM_CACTVS_TAUTO_COUNT>
-1

> <PUBCHEM_COORDINATE_TYPE>
1
5
255

> <PUBCHEM_BONDANNOTATIONS>
10  12  8
11  13  8
12  14  8
13  14  8
9  10  8
9  11  8

$$$$
7410
  -OEChem-02201912152D

 17 17  0     0  0  0  0  0  0999 V2000
    2.0000    1.7500    0.0000 O   0  0  0  0  0  0  0  0  0  0  0  0
    2.8660    0.2500    0.0000 C   0  0  0  0  0  0  0  0  0  0  0  0
    3.7320   -0.2500    0.0000 C   0  0  0  0  0  0  0  0  0  0  0  0
    2.0000   -0.2500    0.0000 C   0  0  0  0  0  0  0  0  0  0  0  0
    2.8660    1.2500    0.0000 C   0  0  0  0  0  0  0  0  0  0  0  0
    3.7320   -1.2500    0.0000 C   0  0  0  0  0  0  0  0  0  0  0  0
    2.0000   -1.2500    0.0000 C   0  0  0  0  0  0  0  0  0  0  0  0
    2.8660   -1.7500    0.0000 C   0  0  0  0  0  0  0  0  0  0  0  0
    3.7320    1.7500    0.0000 C   0  0  0  0  0  0  0  0  0  0  0  0
    4.2690    0.0600    0.0000 H   0  0  0  0  0  0  0  0  0  0  0  0
    1.4631    0.0600    0.0000 H   0  0  0  0  0  0  0  0  0  0  0  0
    4.2690   -1.5600    0.0000 H   0  0  0  0  0  0  0  0  0  0  0  0
    1.4631   -1.5600    0.0000 H   0  0  0  0  0  0  0  0  0  0  0  0
    2.8660   -2.3700    0.0000 H   0  0  0  0  0  0  0  0  0  0  0  0
    4.0420    1.2131    0.0000 H   0  0  0  0  0  0  0  0  0  0  0  0
    4.2690    2.0600    0.0000 H   0  0  0  0  0  0  0  0  0  0  0  0
    3.4220    2.2869    0.0000 H   0  0  0  0  0  0  0  0  0  0  0  0
  1  5  2  0  0  0  0
  2  3  2  0  0  0  0
  2  4  1  0  0  0  0
  2  5  1  0  0  0  0
  3  6  1  0  0  0  0
  3 10  1  0  0  0  0
  4  7  2  0  0  0  0
  4 11  1  0  0  0  0
  5  9  1  0  0  0  0
  6  8  2  0  0  0  0
  6 12  1  0  0  0  0
  7  8  1  0  0  0  0
  7 13  1  0  0  0  0
  8 14  1  0  0  0  0
  9 15  1  0  0  0  0
  9 16  1  0  0  0  0
  9 17  1  0  0  0  0
M  END
> <PUBCHEM_COMPOUND_CID>
7410

> <PUBCHEM_COMPOUND_CANONICALIZED>
1

> <PUBCHEM_CACTVS_COMPLEXITY>
101

> <PUBCHEM_CACTVS_HBOND_ACCEPTOR>
1

> <PUBCHEM_CACTVS_HBOND_DONOR>
0

> <PUBCHEM_CACTVS_ROTATABLE_BOND>
1

> <PUBCHEM_CACTVS_SUBSKEYS>
AAADccBwIAAAAAAAAAAAAAAAAAAAAAAAAAAwAAAAAAAAAAABAAAAGgAAAAAADASAmAAyAIAAAACIAqBSAAACAAAkAAAIiAEAAMgIIDKAFRCAIQAggAAIiYcIiICOAAAAAAAAAAAAAAAAAAAAAAAAAAAAAA==

> <PUBCHEM_IUPAC_OPENEYE_NAME>
1-phenylethanone

> <PUBCHEM_IUPAC_CAS_NAME>
1-phenylethanone

> <PUBCHEM_IUPAC_NAME>
1-phenylethanone

> <PUBCHEM_IUPAC_SYSTEMATIC_NAME>
1-phenylethanone

> <PUBCHEM_IUPAC_TRADITIONAL_NAME>
acetophenone

> <PUBCHEM_IUPAC_INCHI>
InChI=1S/C8H8O/c1-7(9)8-5-3-2-4-6-8/h2-6H,1H3

> <PUBCHEM_IUPAC_INCHIKEY>
KWOLFJPFCHCOCG-UHFFFAOYSA-N

> <PUBCHEM_XLOGP3>
1.6

> <PUBCHEM_EXACT_MASS>
120.058

> <PUBCHEM_MOLECULAR_FORMULA>
C8H8O

> <PUBCHEM_MOLECULAR_WEIGHT>
120.151

> <PUBCHEM_OPENEYE_CAN_SMILES>
CC(=O)C1=CC=CC=C1

> <PUBCHEM_OPENEYE_ISO_SMILES>
CC(=O)C1=CC=CC=C1

> <PUBCHEM_CACTVS_TPSA>
17.1

> <PUBCHEM_MONOISOTOPIC_WEIGHT>
120.058

> <PUBCHEM_TOTAL_CHARGE>
0

> <PUBCHEM_HEAVY_ATOM_COUNT>
9

> <PUBCHEM_ATOM_DEF_STEREO_COUNT>
0

> <PUBCHEM_ATOM_UDEF_STEREO_COUNT>
0

> <PUBCHEM_BOND_DEF_STEREO_COUNT>
0

> <PUBCHEM_BOND_UDEF_STEREO_COUNT>
0

> <PUBCHEM_ISOTOPIC_ATOM_COUNT>
0

> <PUBCHEM_COMPONENT_COUNT>
1

> <PUBCHEM_CACTVS_TAUTO_COUNT>
-1

> <PUBCHEM_COORDINATE_TYPE>
1
5
255

> <PUBCHEM_BONDANNOTATIONS>
2  3  8
2  4  8
3  6  8
4  7  8
6  8  8
7  8  8

$$$$
31244
  -OEChem-02201912152D

 18 18  0     0  0  0  0  0  0999 V2000
    2.8660   -2.0000    0.0000 O   0  0  0  0  0  0  0  0  0  0  0  0
    3.7320    2.5000    0.0000 O   0  0  0  0  0  0  0  0  0  0  0  0
    2.8660   -1.0000    0.0000 C   0  0  0  0  0  0  0  0  0  0  0  0
    2.8660    1.0000    0.0000 C   0  0  0  0  0  0  0  0  0  0  0  0
    3.7320   -0.5000    0.0000 C   0  0  0  0  0  0  0  0  0  0  0  0
    2.0000   -0.5000    0.0000 C   0  0  0  0  0  0  0  0  0  0  0  0
    3.7320    0.5000    0.0000 C   0  0  0  0  0  0  0  0  0  0  0  0
    2.0000    0.5000    0.0000 C   0  0  0  0  0  0  0  0  0  0  0  0
    2.8660    2.0000    0.0000 C   0  0  0  0  0  0  0  0  0  0  0  0
    2.0000   -2.5000    0.0000 C   0  0  0  0  0  0  0  0  0  0  0  0
    4.2690   -0.8100    0.0000 H   0  0  0  0  0  0  0  0  0  0  0  0
    1.4631   -0.8100    0.0000 H   0  0  0  0  0  0  0  0  0  0  0  0
    4.2690    0.8100    0.0000 H   0  0  0  0  0  0  0  0  0  0  0  0
    1.4631    0.8100    0.0000 H   0  0  0  0  0  0  0  0  0  0  0  0
    2.3291    2.3100    0.0000 H   0  0  0  0  0  0  0  0  0  0  0  0
    1.6900   -1.9631    0.0000 H   0  0  0  0  0  0  0  0  0  0  0  0
    1.4631   -2.8100    0.0000 H   0  0  0  0  0  0  0  0  0  0  0  0
    2.3100   -3.0369    0.0000 H   0  0  0  0  0  0  0  0  0  0  0  0
  1  3  1  0  0  0  0
  1 10  1  0  0  0  0
  2  9  2  0  0  0  0
  3  5  2  0  0  0  0
  3  6  1  0  0  0  0
  4  7  2  0  0  0  0
  4  8  1  0  0  0  0
  4  9  1  0  0  0  0
  5  7  1  0  0  0  0
  5 11  1  0  0  0  0
  6  8  2  0  0  0  0
  6 12  1  0  0  0  0
  7 13  1  0  0  0  0
  8 14  1  0  0  0  0
  9 15  1  0  0  0  0
 10 16  1  0  0  0  0
 10 17  1  0  0  0  0
 10 18  1  0  0  0  0
M  END
> <PUBCHEM_COMPOUND_CID>
31244

> <PUBCHEM_COMPOUND_CANONICALIZED>
1

> <PUBCHEM_CACTVS_COMPLEXITY>
104

> <PUBCHEM_CACTVS_HBOND_ACCEPTOR>
2

> <PUBCHEM_CACTVS_HBOND_DONOR>
0

> <PUBCHEM_CACTVS_ROTATABLE_BOND>
2

> <PUBCHEM_CACTVS_SUBSKEYS>
AAADccBwMAAAAAAAAAAAAAAAAAAAAAAAAAAwAAAAAAAAAAABAAAAGgAAAAAADASgmAIyBoAABACIAihSgAACCAAkIAAIiAEGCMgMJjKENRqAMSAkwBEIqYeIzADOIAAAAAAAAABAAAAAAAAAAAAAAAAAAA==

> <PUBCHEM_IUPAC_OPENEYE_NAME>
4-methoxybenzaldehyde

> <PUBCHEM_IUPAC_CAS_NAME>
4-methoxybenzaldehyde

> <PUBCHEM_IUPAC_NAME>
4-methoxybenzaldehyde

> <PUBCHEM_IUPAC_SYSTEMATIC_NAME>
4-methoxybenzaldehyde

> <PUBCHEM_IUPAC_TRADITIONAL_NAME>
4-methoxybenzaldehyde

> <PUBCHEM_IUPAC_INCHI>
InChI=1S/C8H8O2/c1-10-8-4-2-7(6-9)3-5-8/h2-6H,1H3

> <PUBCHEM_IUPAC_INCHIKEY>
ZRSNZINYAWTAHE-UHFFFAOYSA-N

> <PUBCHEM_XLOGP3>
1.8

> <PUBCHEM_EXACT_MASS>
136.052

> <PUBCHEM_MOLECULAR_FORMULA>
C8H8O2

> <PUBCHEM_MOLECULAR_WEIGHT>
136.15

> <PUBCHEM_OPENEYE_CAN_SMILES>
COC1=CC=C(C=C1)C=O

> <PUBCHEM_OPENEYE_ISO_SMILES>
COC1=CC=C(C=C1)C=O

> <PUBCHEM_CACTVS_TPSA>
26.3

> <PUBCHEM_MONOISOTOPIC_WEIGHT>
136.052

> <PUBCHEM_TOTAL_CHARGE>
0

> <PUBCHEM_HEAVY_ATOM_COUNT>
10

> <PUBCHEM_ATOM_DEF_STEREO_COUNT>
0

> <PUBCHEM_ATOM_UDEF_STEREO_COUNT>
0

> <PUBCHEM_BOND_DEF_STEREO_COUNT>
0

> <PUBCHEM_BOND_UDEF_STEREO_COUNT>
0

> <PUBCHEM_ISOTOPIC_ATOM_COUNT>
0

> <PUBCHEM_COMPONENT_COUNT>
1

> <PUBCHEM_CACTVS_TAUTO_COUNT>
-1

> <PUBCHEM_COORDINATE_TYPE>
1
5
255

> <PUBCHEM_BONDANNOTATIONS>
3  5  8
3  6  8
4  7  8
4  8  8
5  7  8
6  8  8

$$$$
240
  -OEChem-02201912152D

 14 14  0     0  0  0  0  0  0999 V2000
    3.7320    1.7500    0.0000 O   0  0  0  0  0  0  0  0  0  0  0  0
    2.8660    0.2500    0.0000 C   0  0  0  0  0  0  0  0  0  0  0  0
    3.7320   -0.2500    0.0000 C   0  0  0  0  0  0  0  0  0  0  0  0
    2.0000   -0.2500    0.0000 C   0  0  0  0  0  0  0  0  0  0  0  0
    3.7320   -1.2500    0.0000 C   0  0  0  0  0  0  0  0  0  0  0  0
    2.0000   -1.2500    0.0000 C   0  0  0  0  0  0  0  0  0  0  0  0
    2.8660   -1.7500    0.0000 C   0  0  0  0  0  0  0  0  0  0  0  0
    2.8660    1.2500    0.0000 C   0  0  0  0  0  0  0  0  0  0  0  0
    4.2690    0.0600    0.0000 H   0  0  0  0  0  0  0  0  0  0  0  0
    1.4631    0.0600    0.0000 H   0  0  0  0  0  0  0  0  0  0  0  0
    4.2690   -1.5600    0.0000 H   0  0  0  0  0  0  0  0  0  0  0  0
    1.4631   -1.5600    0.0000 H   0  0  0  0  0  0  0  0  0  0  0  0
    2.8660   -2.3700    0.0000 H   0  0  0  0  0  0  0  0  0  0  0  0
    2.3291    1.5600    0.0000 H   0  0  0  0  0  0  0  0  0  0  0  0
  1  8  2  0  0  0  0
  2  3  2  0  0  0  0
  2  4  1  0  0  0  0
  2  8  1  0  0  0  0
  3  5  1  0  0  0  0
  3  9  1  0  0  0  0
  4  6  2  0  0  0  0
  4 10  1  0  0  0  0
  5  7  2  0  0  0  0
  5 11  1  0  0  0  0
  6  7  1  0  0  0  0
  6 12  1  0  0  0  0
  7 13  1  0  0  0  0
  8 14  1  0  0  0  0
M  END
> <PUBCHEM_COMPOUND_CID>
240

> <PUBCHEM_COMPOUND_CANONICALIZED>
1

> <PUBCHEM_CACTVS_COMPLEXITY>
72.5

> <PUBCHEM_CACTVS_HBOND_ACCEPTOR>
1

> <PUBCHEM_CACTVS_HBOND_DONOR>
0

> <PUBCHEM_CACTVS_ROTATABLE_BOND>
1

> <PUBCHEM_CACTVS_SUBSKEYS>
AAADcYBgIAAAAAAAAAAAAAAAAAAAAAAAAAAwAAAAAAAAAAABAAAAGgAAAAAADACgmAIwAIAAAACIAihSgAACAAAkAAAIiAEAAMgIIDKAFRCAIQAggAAIiYcIiACOAAAAAAAAAAAAAAAAAAAAAAAAAAAAAA==

> <PUBCHEM_IUPAC_OPENEYE_NAME>
benzaldehyde

> <PUBCHEM_IUPAC_CAS_NAME>
benzaldehyde

> <PUBCHEM_IUPAC_NAME>
benzaldehyde

> <PUBCHEM_IUPAC_SYSTEMATIC_NAME>
benzaldehyde

> <PUBCHEM_IUPAC_TRADITIONAL_NAME>
benzaldehyde

> <PUBCHEM_IUPAC_INCHI>
InChI=1S/C7H6O/c8-6-7-4-2-1-3-5-7/h1-6H

> <PUBCHEM_IUPAC_INCHIKEY>
HUMNYLRZRPPJDN-UHFFFAOYSA-N

> <PUBCHEM_XLOGP3>
1.5

> <PUBCHEM_EXACT_MASS>
106.042

> <PUBCHEM_MOLECULAR_FORMULA>
C7H6O

> <PUBCHEM_MOLECULAR_WEIGHT>
106.124

> <PUBCHEM_OPENEYE_CAN_SMILES>
C1=CC=C(C=C1)C=O

> <PUBCHEM_OPENEYE_ISO_SMILES>
C1=CC=C(C=C1)C=O

> <PUBCHEM_CACTVS_TPSA>
17.1

> <PUBCHEM_MONOISOTOPIC_WEIGHT>
106.042

> <PUBCHEM_TOTAL_CHARGE>
0

> <PUBCHEM_HEAVY_ATOM_COUNT>
8

> <PUBCHEM_ATOM_DEF_STEREO_COUNT>
0

> <PUBCHEM_ATOM_UDEF_STEREO_COUNT>
0

> <PUBCHEM_BOND_DEF_STEREO_COUNT>
0

> <PUBCHEM_BOND_UDEF_STEREO_COUNT>
0

> <PUBCHEM_ISOTOPIC_ATOM_COUNT>
0

> <PUBCHEM_COMPONENT_COUNT>
1

> <PUBCHEM_CACTVS_TAUTO_COUNT>
-1

> <PUBCHEM_COORDINATE_TYPE>
1
5
255

> <PUBCHEM_BONDANNOTATIONS>
2  3  8
2  4  8
3  5  8
4  6  8
5  7  8
6  7  8

$$$$
243
  -OEChem-02201912152D

 15 15  0     0  0  0  0  0  0999 V2000
    3.7320    1.4400    0.0000 O   0  0  0  0  0  0  0  0  0  0  0  0
    2.0000    1.4400    0.0000 O   0  0  0  0  0  0  0  0  0  0  0  0
    2.8660   -0.0600    0.0000 C   0  0  0  0  0  0  0  0  0  0  0  0
    3.7320   -0.5600    0.0000 C   0  0  0  0  0  0  0  0  0  0  0  0
    2.0000   -0.5600    0.0000 C   0  0  0  0  0  0  0  0  0  0  0  0
    3.7320   -1.5600    0.0000 C   0  0  0  0  0  0  0  0  0  0  0  0
    2.0000   -1.5600    0.0000 C   0  0  0  0  0  0  0  0  0  0  0  0
    2.8660   -2.0600    0.0000 C   0  0  0  0  0  0  0  0  0  0  0  0
    2.8660    0.9400    0.0000 C   0  0  0  0  0  0  0  0  0  0  0  0
    4.2690   -0.2500    0.0000 H   0  0  0  0  0  0  0  0  0  0  0  0
    1.4631   -0.2500    0.0000 H   0  0  0  0  0  0  0  0  0  0  0  0
    4.2690   -1.8700    0.0000 H   0  0  0  0  0  0  0  0  0  0  0  0
    1.4631   -1.8700    0.0000 H   0  0  0  0  0  0  0  0  0  0  0  0
    2.8660   -2.6800    0.0000 H   0  0  0  0  0  0  0  0  0  0  0  0
    3.7320    2.0600    0.0000 H   0  0  0  0  0  0  0  0  0  0  0  0
  1  9  1  0  0  0  0
  1 15  1  0  0  0  0
  2  9  2  0  0  0  0
  3  4  2  0  0  0  0
  3  5  1  0  0  0  0
  3  9  1  0  0  0  0
  4  6  1  0  0  0  0
  4 10  1  0  0  0  0
  5  7  2  0  0  0  0
  5 11  1  0  0  0  0
  6  8  2  0  0  0  0
  6 12  1  0  0  0  0
  7  8  1  0  0  0  0
  7 13  1  0  0  0  0
  8 14  1  0  0  0  0
M  END
> <PUBCHEM_COMPOUND_CID>
243

> <PUBCHEM_COMPOUND_CANONICALIZED>
1

> <PUBCHEM_CACTVS_COMPLEXITY>
104

> <PUBCHEM_CACTVS_HBOND_ACCEPTOR>
2

> <PUBCHEM_CACTVS_HBOND_DONOR>
1

> <PUBCHEM_CACTVS_ROTATABLE_BOND>
1

> <PUBCHEM_CACTVS_SUBSKEYS>
AAADcYBgMAAAAAAAAAAAAAAAAAAAAAAAAAAwAAAAAAAAAAABAAAAGgAACAAADACAmAAwCIAAAgCIAiDSCAACAAAkAAAIiAEACMgIJjKAFRCAcQAkwAEImYeIyCCOAAAAAAAAAAAAAAAAAAAAAAAAAAAAAA==

> <PUBCHEM_IUPAC_OPENEYE_NAME>
benzoic acid

> <PUBCHEM_IUPAC_CAS_NAME>
benzoic acid

> <PUBCHEM_IUPAC_NAME>
benzoic acid

> <PUBCHEM_IUPAC_SYSTEMATIC_NAME>
benzoic acid

> <PUBCHEM_IUPAC_TRADITIONAL_NAME>
benzoic acid

> <PUBCHEM_IUPAC_INCHI>
InChI=1S/C7H6O2/c8-7(9)6-4-2-1-3-5-6/h1-5H,(H,8,9)

> <PUBCHEM_IUPAC_INCHIKEY>
WPYMKLBDIGXBTP-UHFFFAOYSA-N

> <PUBCHEM_XLOGP3>
1.9

> <PUBCHEM_EXACT_MASS>
122.037

> <PUBCHEM_MOLECULAR_FORMULA>
C7H6O2

> <PUBCHEM_MOLECULAR_WEIGHT>
122.123

> <PUBCHEM_OPENEYE_CAN_SMILES>
C1=CC=C(C=C1)C(=O)O

> <PUBCHEM_OPENEYE_ISO_SMILES>
C1=CC=C(C=C1)C(=O)O

> <PUBCHEM_CACTVS_TPSA>
37.3

> <PUBCHEM_MONOISOTOPIC_WEIGHT>
122.037

> <PUBCHEM_TOTAL_CHARGE>
0

> <PUBCHEM_HEAVY_ATOM_COUNT>
9

> <PUBCHEM_ATOM_DEF_STEREO_COUNT>
0

> <PUBCHEM_ATOM_UDEF_STEREO_COUNT>
0

> <PUBCHEM_BOND_DEF_STEREO_COUNT>
0

> <PUBCHEM_BOND_UDEF_STEREO_COUNT>
0

> <PUBCHEM_ISOTOPIC_ATOM_COUNT>
0

> <PUBCHEM_COMPONENT_COUNT>
1

> <PUBCHEM_CACTVS_TAUTO_COUNT>
-1

> <PUBCHEM_COORDINATE_TYPE>
1
5
255

> <PUBCHEM_BONDANNOTATIONS>
3  4  8
3  5  8
4  6  8
5  7  8
6  8  8
7  8  8

$$$$
244
  -OEChem-02201912152D

 16 16  0     0  0  0  0  0  0999 V2000
    3.7320    1.4400    0.0000 O   0  0  0  0  0  0  0  0  0  0  0  0
    2.8660   -0.0600    0.0000 C   0  0  0  0  0  0  0  0  0  0  0  0
    2.8660    0.9400    0.0000 C   0  0  0  0  0  0  0  0  0  0  0  0
    3.7320   -0.5600    0.0000 C   0  0  0  0  0  0  0  0  0  0  0  0
    2.0000   -0.5600    0.0000 C   0  0  0  0  0  0  0  0  0  0  0  0
    3.7320   -1.5600    0.0000 C   0  0  0  0  0  0  0  0  0  0  0  0
    2.0000   -1.5600    0.0000 C   0  0  0  0  0  0  0  0  0  0  0  0
    2.8660   -2.0600    0.0000 C   0  0  0  0  0  0  0  0  0  0  0  0
    2.6540    1.5226    0.0000 H   0  0  0  0  0  0  0  0  0  0  0  0
    2.2554    0.8323    0.0000 H   0  0  0  0  0  0  0  0  0  0  0  0
    4.2690   -0.2500    0.0000 H   0  0  0  0  0  0  0  0  0  0  0  0
    1.4631   -0.2500    0.0000 H   0  0  0  0  0  0  0  0  0  0  0  0
    4.2690   -1.8700    0.0000 H   0  0  0  0  0  0  0  0  0  0  0  0
    1.4631   -1.8700    0.0000 H   0  0  0  0  0  0  0  0  0  0  0  0
    2.8660   -2.6800    0.0000 H   0  0  0  0  0  0  0  0  0  0  0  0
    3.7320    2.0600    0.0000 H   0  0  0  0  0  0  0  0  0  0  0  0
  1  3  1  0  0  0  0
  1 16  1  0  0  0  0
  2  3  1  0  0  0  0
  2  4  2  0  0  0  0
  2  5  1  0  0  0  0
  3  9  1  0  0  0  0
  3 10  1  0  0  0  0
  4  6  1  0  0  0  0
  4 11  1  0  0  0  0
  5  7  2  0  0  0  0
  5 12  1  0  0  0  0
  6  8  2  0  0  0  0
  6 13  1  0  0  0  0
  7  8  1  0  0  0  0
  7 14  1  0  0  0  0
  8 15  1  0  0  0  0
M  END
> <PUBCHEM_COMPOUND_CID>
244

> <PUBCHEM_COMPOUND_CANONICALIZED>
1

> <PUBCHEM_CACTVS_COMPLEXITY>
55.4

> <PUBCHEM_CACTVS_HBOND_ACCEPTOR>
1

> <PUBCHEM_CACTVS_HBOND_DONOR>
1

> <PUBCHEM_CACTVS_ROTATABLE_BOND>
1

> <PUBCHEM_CACTVS_SUBSKEYS>
AAADccBgIAAAAAAAAAAAAAAAAAAAAAAAAAAwAAAAAAAAAAABAAAAGgAACAAADACgmAIwAIAAAgCAAiBCAAACAAAgAAAIiAAACIgINiKAERCAcAAkwAEImAeAwCAOAAAAAAAAAAAAAAAAAAAAAAAAAAAAAA==

> <PUBCHEM_IUPAC_OPENEYE_NAME>
phenylmethanol

> <PUBCHEM_IUPAC_CAS_NAME>
phenylmethanol

> <PUBCHEM_IUPAC_NAME>
phenylmethanol

> <PUBCHEM_IUPAC_SYSTEMATIC_NAME>
phenylmethanol

> <PUBCHEM_IUPAC_TRADITIONAL_NAME>
phenylmethanol

> <PUBCHEM_IUPAC_INCHI>
InChI=1S/C7H8O/c8-6-7-4-2-1-3-5-7/h1-5,8H,6H2

> <PUBCHEM_IUPAC_INCHIKEY>
WVDDGKGOMKODPV-UHFFFAOYSA-N

> <PUBCHEM_XLOGP3>
1.1

> <PUBCHEM_EXACT_MASS>
108.058

> <PUBCHEM_MOLECULAR_FORMULA>
C7H8O

> <PUBCHEM_MOLECULAR_WEIGHT>
108.14

> <PUBCHEM_OPENEYE_CAN_SMILES>
C1=CC=C(C=C1)CO

> <PUBCHEM_OPENEYE_ISO_SMILES>
C1=CC=C(C=C1)CO

> <PUBCHEM_CACTVS_TPSA>
20.2

> <PUBCHEM_MONOISOTOPIC_WEIGHT>
108.058

> <PUBCHEM_TOTAL_CHARGE>
0

> <PUBCHEM_HEAVY_ATOM_COUNT>
8

> <PUBCHEM_ATOM_DEF_STEREO_COUNT>
0

> <PUBCHEM_ATOM_UDEF_STEREO_COUNT>
0

> <PUBCHEM_BOND_DEF_STEREO_COUNT>
0

> <PUBCHEM_BOND_UDEF_STEREO_COUNT>
0

> <PUBCHEM_ISOTOPIC_ATOM_COUNT>
0

> <PUBCHEM_COMPONENT_COUNT>
1

> <PUBCHEM_CACTVS_TAUTO_COUNT>
-1

> <PUBCHEM_COORDINATE_TYPE>
1
5
255

> <PUBCHEM_BONDANNOTATIONS>
2  4  8
2  5  8
4  6  8
5  7  8
6  8  8
7  8  8

$$$$
2345
  -OEChem-02201912152D

 28 29  0     0  0  0  0  0  0999 V2000
    3.7320    0.2500    0.0000 O   0  0  0  0  0  0  0  0  0  0  0  0
    2.0000    0.2500    0.0000 O   0  0  0  0  0  0  0  0  0  0  0  0
    4.5981    1.7500    0.0000 C   0  0  0  0  0  0  0  0  0  0  0  0
    3.7320    1.2500    0.0000 C   0  0  0  0  0  0  0  0  0  0  0  0
    2.8660   -1.2500    0.0000 C   0  0  0  0  0  0  0  0  0  0  0  0
    4.5981    2.7500    0.0000 C   0  0  0  0  0  0  0  0  0  0  0  0
    5.4641    1.2500    0.0000 C   0  0  0  0  0  0  0  0  0  0  0  0
    2.8660   -0.2500    0.0000 C   0  0  0  0  0  0  0  0  0  0  0  0
    5.4641    3.2500    0.0000 C   0  0  0  0  0  0  0  0  0  0  0  0
    6.3301    1.7500    0.0000 C   0  0  0  0  0  0  0  0  0  0  0  0
    3.7320   -1.7500    0.0000 C   0  0  0  0  0  0  0  0  0  0  0  0
    2.0000   -1.7500    0.0000 C   0  0  0  0  0  0  0  0  0  0  0  0
    6.3301    2.7500    0.0000 C   0  0  0  0  0  0  0  0  0  0  0  0
    3.7320   -2.7500    0.0000 C   0  0  0  0  0  0  0  0  0  0  0  0
    2.0000   -2.7500    0.0000 C   0  0  0  0  0  0  0  0  0  0  0  0
    2.8660   -3.2500    0.0000 C   0  0  0  0  0  0  0  0  0  0  0  0
    3.5200    1.8326    0.0000 H   0  0  0  0  0  0  0  0  0  0  0  0
    3.1215    1.1423    0.0000 H   0  0  0  0  0  0  0  0  0  0  0  0
    4.0611    3.0600    0.0000 H   0  0  0  0  0  0  0  0  0  0  0  0
    5.4641    0.6300    0.0000 H   0  0  0  0  0  0  0  0  0  0  0  0
    5.4641    3.8700    0.0000 H   0  0  0  0  0  0  0  0  0  0  0  0
    6.8671    1.4400    0.0000 H   0  0  0  0  0  0  0  0  0  0  0  0
    4.2690   -1.4400    0.0000 H   0  0  0  0  0  0  0  0  0  0  0  0
    1.4631   -1.4400    0.0000 H   0  0  0  0  0  0  0  0  0  0  0  0
    6.8671    3.0600    0.0000 H   0  0  0  0  0  0  0  0  0  0  0  0
    4.2690   -3.0600    0.0000 H   0  0  0  0  0  0  0  0  0  0  0  0
    1.4631   -3.0600    0.0000 H   0  0  0  0  0  0  0  0  0  0  0  0
    2.8660   -3.8700    0.0000 H   0  0  0  0  0  0  0  0  0  0  0  0
  1  4  1  0  0  0  0
  1  8  1  0  0  0  0
  2  8  2  0  0  0  0
  3  4  1  0  0  0  0
  3  6  2  0  0  0  0
  3  7  1  0  0  0  0
  4 17  1  0  0  0  0
  4 18  1  0  0  0  0
  5  8  1  0  0  0  0
  5 11  2  0  0  0  0
  5 12  1  0  0  0  0
  6  9  1  0  0  0  0
  6 19  1  0  0  0  0
  7 10  2  0  0  0  0
  7 20  1  0  0  0  0
  9 13  2  0  0  0  0
  9 21  1  0  0  0  0
 10 13  1  0  0  0  0
 10 22  1  0  0  0  0
 11 14  1  0  0  0  0
 11 23  1  0  0  0  0
 12 15  2  0  0  0  0
 12 24  1  0  0  0  0
 13 25  1  0  0  0  0
 14 16  2  0  0  0  0
 14 26  1  0  0  0  0
 15 16  1  0  0  0  0
 15 27  1  0  0  0  0
 16 28  1  0  0  0  0
M  END
> <PUBCHEM_COMPOUND_CID>
2345

> <PUBCHEM_COMPOUND_CANONICALIZED>
1

> <PUBCHEM_CACTVS_COMPLEXITY>
213

> <PUBCHEM_CACTVS_HBOND_ACCEPTOR>
2

> <PUBCHEM_CACTVS_HBOND_DONOR>
0

> <PUBCHEM_CACTVS_ROTATABLE_BOND>
4

> <PUBCHEM_CACTVS_SUBSKEYS>
AAADccBwMAAAAAAAAAAAAAAAAAAAAAAAAAAwYAAAAAAAAAABQAAAGgAAAAAADACgmAIwCIAABACIAiDSCAACAAAkAAAIiAEACMgIJjKANRiCMQAkwAEIqYeIyCCOAAAAAAAAAAAAAAAAAAAAAAAAAAAAAA==

> <PUBCHEM_IUPAC_OPENEYE_NAME>
benzyl benzoate

> <PUBCHEM_IUPAC_CAS_NAME>
benzoic acid (phenylmethyl) ester

> <PUBCHEM_IUPAC_NAME>
benzyl benzoate

> <PUBCHEM_IUPAC_SYSTEMATIC_NAME>
(phenylmethyl) benzoate

> <PUBCHEM_IUPAC_TRADITIONAL_NAME>
benzoic acid benzyl ester

> <PUBCHEM_IUPAC_INCHI>
InChI=1S/C14H12O2/c15-14(13-9-5-2-6-10-13)16-11-12-7-3-1-4-8-12/h1-10H,11H2

> <PUBCHEM_IUPAC_INCHIKEY>
SESFRYSPDFLNCH-UHFFFAOYSA-N

> <PUBCHEM_XLOGP3>
4

> <PUBCHEM_EXACT_MASS>
212.084

> <PUBCHEM_MOLECULAR_FORMULA>
C14H12O2

> <PUBCHEM_MOLECULAR_WEIGHT>
212.248

> <PUBCHEM_OPENEYE_CAN_SMILES>
C1=CC=C(C=C1)COC(=O)C2=CC=CC=C2

> <PUBCHEM_OPENEYE_ISO_SMILES>
C1=CC=C(C=C1)COC(=O)C2=CC=CC=C2

> <PUBCHEM_CACTVS_TPSA>
26.3

> <PUBCHEM_MONOISOTOPIC_WEIGHT>
212.084

> <PUBCHEM_TOTAL_CHARGE>
0

> <PUBCHEM_HEAVY_ATOM_COUNT>
16

> <PUBCHEM_ATOM_DEF_STEREO_COUNT>
0

> <PUBCHEM_ATOM_UDEF_STEREO_COUNT>
0

> <PUBCHEM_BOND_DEF_STEREO_COUNT>
0

> <PUBCHEM_BOND_UDEF_STEREO_COUNT>
0

> <PUBCHEM_ISOTOPIC_ATOM_COUNT>
0

> <PUBCHEM_COMPONENT_COUNT>
1

> <PUBCHEM_CACTVS_TAUTO_COUNT>
-1

> <PUBCHEM_COORDINATE_TYPE>
1
5
255

> <PUBCHEM_BONDANNOTATIONS>
10  13  8
11  14  8
12  15  8
14  16  8
15  16  8
3  6  8
3  7  8
5  11  8
5  12  8
6  9  8
7  10  8
9  13  8

$$$$
8794
  -OEChem-02201912152D

 16 16  0     0  0  0  0  0  0999 V2000
    4.5981    2.0000    0.0000 N   0  0  0  0  0  0  0  0  0  0  0  0
    2.8660   -0.0000    0.0000 C   0  0  0  0  0  0  0  0  0  0  0  0
    2.8660    1.0000    0.0000 C   0  0  0  0  0  0  0  0  0  0  0  0
    2.0000   -0.5000    0.0000 C   0  0  0  0  0  0  0  0  0  0  0  0
    3.7320   -0.5000    0.0000 C   0  0  0  0  0  0  0  0  0  0  0  0
    2.0000   -1.5000    0.0000 C   0  0  0  0  0  0  0  0  0  0  0  0
    3.7320   -1.5000    0.0000 C   0  0  0  0  0  0  0  0  0  0  0  0
    2.8660   -2.0000    0.0000 C   0  0  0  0  0  0  0  0  0  0  0  0
    3.7320    1.5000    0.0000 C   0  0  0  0  0  0  0  0  0  0  0  0
    2.5753    1.7987    0.0000 H   0  0  0  0  0  0  0  0  0  0  0  0
    2.2554    0.8923    0.0000 H   0  0  0  0  0  0  0  0  0  0  0  0
    1.4631   -0.1900    0.0000 H   0  0  0  0  0  0  0  0  0  0  0  0
    4.2690   -0.1900    0.0000 H   0  0  0  0  0  0  0  0  0  0  0  0
    1.4631   -1.8100    0.0000 H   0  0  0  0  0  0  0  0  0  0  0  0
    4.2690   -1.8100    0.0000 H   0  0  0  0  0  0  0  0  0  0  0  0
    2.8660   -2.6200    0.0000 H   0  0  0  0  0  0  0  0  0  0  0  0
  1  9  3  0  0  0  0
  2  3  1  0  0  0  0
  2  4  2  0  0  0  0
  2  5  1  0  0  0  0
  3  9  1  0  0  0  0
  3 10  1  0  0  0  0
  3 11  1  0  0  0  0
  4  6  1  0  0  0  0
  4 12  1  0  0  0  0
  5  7  2  0  0  0  0
  5 13  1  0  0  0  0
  6  8  2  0  0  0  0
  6 14  1  0  0  0  0
  7  8  1  0  0  0  0
  7 15  1  0  0  0  0
  8 16  1  0  0  0  0
M  END
> <PUBCHEM_COMPOUND_CID>
8794

> <PUBCHEM_COMPOUND_CANONICALIZED>
1

> <PUBCHEM_CACTVS_COMPLEXITY>
114

> <PUBCHEM_CACTVS_HBOND_ACCEPTOR>
1

> <PUBCHEM_CACTVS_HBOND_DONOR>
0

> <PUBCHEM_CACTVS_ROTATABLE_BOND>
1

> <PUBCHEM_CACTVS_SUBSKEYS>
AAADcYByAAAAAAAAAAAAAAAAAAAAAAAAAAAwAAAAAAAAAAABAAAAHAAAAAAADACBGAAwAIAAAACQBiBCAAACAAAgAAAIiAAAAIgIoCKAERCAIAAggAAIiA8AgIAOAAAAAAAAAAAAAAAAAAAAAAAAAAAAAA==

> <PUBCHEM_IUPAC_OPENEYE_NAME>
2-phenylacetonitrile

> <PUBCHEM_IUPAC_CAS_NAME>
2-phenylacetonitrile

> <PUBCHEM_IUPAC_NAME>
2-phenylacetonitrile

> <PUBCHEM_IUPAC_SYSTEMATIC_NAME>
2-phenylethanenitrile

> <PUBCHEM_IUPAC_TRADITIONAL_NAME>
2-phenylacetonitrile

> <PUBCHEM_IUPAC_INCHI>
InChI=1S/C8H7N/c9-7-6-8-4-2-1-3-5-8/h1-5H,6H2

> <PUBCHEM_IUPAC_INCHIKEY>
SUSQOBVLVYHIEX-UHFFFAOYSA-N

> <PUBCHEM_XLOGP3>
1.6

> <PUBCHEM_EXACT_MASS>
117.058

> <PUBCHEM_MOLECULAR_FORMULA>
C8H7N

> <PUBCHEM_MOLECULAR_WEIGHT>
117.151

> <PUBCHEM_OPENEYE_CAN_SMILES>
C1=CC=C(C=C1)CC#N

> <PUBCHEM_OPENEYE_ISO_SMILES>
C1=CC=C(C=C1)CC#N

> <PUBCHEM_CACTVS_TPSA>
23.8

> <PUBCHEM_MONOISOTOPIC_WEIGHT>
117.058

> <PUBCHEM_TOTAL_CHARGE>
0

> <PUBCHEM_HEAVY_ATOM_COUNT>
9

> <PUBCHEM_ATOM_DEF_STEREO_COUNT>
0

> <PUBCHEM_ATOM_UDEF_STEREO_COUNT>
1

> <PUBCHEM_BOND_DEF_STEREO_COUNT>
0

> <PUBCHEM_BOND_UDEF_STEREO_COUNT>
0

> <PUBCHEM_ISOTOPIC_ATOM_COUNT>
0

> <PUBCHEM_COMPONENT_COUNT>
1

> <PUBCHEM_CACTVS_TAUTO_COUNT>
-1

> <PUBCHEM_COORDINATE_TYPE>
1
5
255

> <PUBCHEM_BONDANNOTATIONS>
2  4  8
2  5  8
3  10  3
4  6  8
5  7  8
6  8  8
7  8  8

$$$$
7708
  -OEChem-02201912152D

 18 18  0     0  0  0  0  0  0999 V2000
    3.7320    1.0000    0.0000 O   0  0  0  0  0  0  0  0  0  0  0  0
    4.5981    2.5000    0.0000 O   0  0  0  0  0  0  0  0  0  0  0  0
    2.8660   -0.5000    0.0000 C   0  0  0  0  0  0  0  0  0  0  0  0
    2.8660    0.5000    0.0000 C   0  0  0  0  0  0  0  0  0  0  0  0
    3.7320   -1.0000    0.0000 C   0  0  0  0  0  0  0  0  0  0  0  0
    2.0000   -1.0000    0.0000 C   0  0  0  0  0  0  0  0  0  0  0  0
    3.7320   -2.0000    0.0000 C   0  0  0  0  0  0  0  0  0  0  0  0
    2.0000   -2.0000    0.0000 C   0  0  0  0  0  0  0  0  0  0  0  0
    2.8660   -2.5000    0.0000 C   0  0  0  0  0  0  0  0  0  0  0  0
    3.7320    2.0000    0.0000 C   0  0  0  0  0  0  0  0  0  0  0  0
    2.6540    1.0826    0.0000 H   0  0  0  0  0  0  0  0  0  0  0  0
    2.2554    0.3923    0.0000 H   0  0  0  0  0  0  0  0  0  0  0  0
    4.2690   -0.6900    0.0000 H   0  0  0  0  0  0  0  0  0  0  0  0
    1.4631   -0.6900    0.0000 H   0  0  0  0  0  0  0  0  0  0  0  0
    4.2690   -2.3100    0.0000 H   0  0  0  0  0  0  0  0  0  0  0  0
    1.4631   -2.3100    0.0000 H   0  0  0  0  0  0  0  0  0  0  0  0
    2.8660   -3.1200    0.0000 H   0  0  0  0  0  0  0  0  0  0  0  0
    3.1951    2.3100    0.0000 H   0  0  0  0  0  0  0  0  0  0  0  0
  1  4  1  0  0  0  0
  1 10  1  0  0  0  0
  2 10  2  0  0  0  0
  3  4  1  0  0  0  0
  3  5  2  0  0  0  0
  3  6  1  0  0  0  0
  4 11  1  0  0  0  0
  4 12  1  0  0  0  0
  5  7  1  0  0  0  0
  5 13  1  0  0  0  0
  6  8  2  0  0  0  0
  6 14  1  0  0  0  0
  7  9  2  0  0  0  0
  7 15  1  0  0  0  0
  8  9  1  0  0  0  0
  8 16  1  0  0  0  0
  9 17  1  0  0  0  0
 10 18  1  0  0  0  0
M  END
> <PUBCHEM_COMPOUND_CID>
7708

> <PUBCHEM_COMPOUND_CANONICALIZED>
1

> <PUBCHEM_CACTVS_COMPLEXITY>
95.4

> <PUBCHEM_CACTVS_HBOND_ACCEPTOR>
2

> <PUBCHEM_CACTVS_HBOND_DONOR>
0

> <PUBCHEM_CACTVS_ROTATABLE_BOND>
3

> <PUBCHEM_CACTVS_SUBSKEYS>
AAADccBwMAAAAAAAAAAAAAAAAAAAAAAAAAAwAAAAAAAAAAABAAAAGgAAAAAADACgmAMwCIAABACIAiBCiAACAAAgAAAIiAAACIgIJiKAMRiAMAAkwAEIqAeAwCAOAAAAAAAAAAAAAAAAAAAAAAAAAAAAAA==

> <PUBCHEM_IUPAC_OPENEYE_NAME>
benzyl formate

> <PUBCHEM_IUPAC_CAS_NAME>
formic acid (phenylmethyl) ester

> <PUBCHEM_IUPAC_NAME>
benzyl formate

> <PUBCHEM_IUPAC_SYSTEMATIC_NAME>
(phenylmethyl) methanoate

> <PUBCHEM_IUPAC_TRADITIONAL_NAME>
formic acid benzyl ester

> <PUBCHEM_IUPAC_INCHI>
InChI=1S/C8H8O2/c9-7-10-6-8-4-2-1-3-5-8/h1-5,7H,6H2

> <PUBCHEM_IUPAC_INCHIKEY>
UYWQUFXKFGHYNT-UHFFFAOYSA-N

> <PUBCHEM_XLOGP3_AA>
1.6

> <PUBCHEM_EXACT_MASS>
136.052

> <PUBCHEM_MOLECULAR_FORMULA>
C8H8O2

> <PUBCHEM_MOLECULAR_WEIGHT>
136.15

> <PUBCHEM_OPENEYE_CAN_SMILES>
C1=CC=C(C=C1)COC=O

> <PUBCHEM_OPENEYE_ISO_SMILES>
C1=CC=C(C=C1)COC=O

> <PUBCHEM_CACTVS_TPSA>
26.3

> <PUBCHEM_MONOISOTOPIC_WEIGHT>
136.052

> <PUBCHEM_TOTAL_CHARGE>
0

> <PUBCHEM_HEAVY_ATOM_COUNT>
10

> <PUBCHEM_ATOM_DEF_STEREO_COUNT>
0

> <PUBCHEM_ATOM_UDEF_STEREO_COUNT>
0

> <PUBCHEM_BOND_DEF_STEREO_COUNT>
0

> <PUBCHEM_BOND_UDEF_STEREO_COUNT>
0

> <PUBCHEM_ISOTOPIC_ATOM_COUNT>
0

> <PUBCHEM_COMPONENT_COUNT>
1

> <PUBCHEM_CACTVS_TAUTO_COUNT>
-1

> <PUBCHEM_COORDINATE_TYPE>
1
5
255

> <PUBCHEM_BONDANNOTATIONS>
3  5  8
3  6  8
5  7  8
6  8  8
7  9  8
8  9  8

$$$$
10869
  -OEChem-02201912152D

 19 19  0     0  0  0  0  0  0999 V2000
    3.7320    1.2500    0.0000 O   0  0  0  0  0  0  0  0  0  0  0  0
    2.8660   -0.2500    0.0000 C   0  0  0  0  0  0  0  0  0  0  0  0
    2.8660    0.7500    0.0000 C   0  0  0  0  0  0  0  0  0  0  0  0
    3.7320   -0.7500    0.0000 C   0  0  0  0  0  0  0  0  0  0  0  0
    2.0000   -0.7500    0.0000 C   0  0  0  0  0  0  0  0  0  0  0  0
    3.7320   -1.7500    0.0000 C   0  0  0  0  0  0  0  0  0  0  0  0
    2.0000   -1.7500    0.0000 C   0  0  0  0  0  0  0  0  0  0  0  0
    2.8660   -2.2500    0.0000 C   0  0  0  0  0  0  0  0  0  0  0  0
    3.7320    2.2500    0.0000 C   0  0  0  0  0  0  0  0  0  0  0  0
    2.6540    1.3326    0.0000 H   0  0  0  0  0  0  0  0  0  0  0  0
    2.2554    0.6423    0.0000 H   0  0  0  0  0  0  0  0  0  0  0  0
    4.2690   -0.4400    0.0000 H   0  0  0  0  0  0  0  0  0  0  0  0
    1.4631   -0.4400    0.0000 H   0  0  0  0  0  0  0  0  0  0  0  0
    4.2690   -2.0600    0.0000 H   0  0  0  0  0  0  0  0  0  0  0  0
    1.4631   -2.0600    0.0000 H   0  0  0  0  0  0  0  0  0  0  0  0
    2.8660   -2.8700    0.0000 H   0  0  0  0  0  0  0  0  0  0  0  0
    4.3520    2.2500    0.0000 H   0  0  0  0  0  0  0  0  0  0  0  0
    3.7320    2.8700    0.0000 H   0  0  0  0  0  0  0  0  0  0  0  0
    3.1120    2.2500    0.0000 H   0  0  0  0  0  0  0  0  0  0  0  0
  1  3  1  0  0  0  0
  1  9  1  0  0  0  0
  2  3  1  0  0  0  0
  2  4  2  0  0  0  0
  2  5  1  0  0  0  0
  3 10  1  0  0  0  0
  3 11  1  0  0  0  0
  4  6  1  0  0  0  0
  4 12  1  0  0  0  0
  5  7  2  0  0  0  0
  5 13  1  0  0  0  0
  6  8  2  0  0  0  0
  6 14  1  0  0  0  0
  7  8  1  0  0  0  0
  7 15  1  0  0  0  0
  8 16  1  0  0  0  0
  9 17  1  0  0  0  0
  9 18  1  0  0  0  0
  9 19  1  0  0  0  0
M  END
> <PUBCHEM_COMPOUND_CID>
10869

> <PUBCHEM_COMPOUND_CANONICALIZED>
1

> <PUBCHEM_CACTVS_COMPLEXITY>
65

> <PUBCHEM_CACTVS_HBOND_ACCEPTOR>
1

> <PUBCHEM_CACTVS_HBOND_DONOR>
0

> <PUBCHEM_CACTVS_ROTATABLE_BOND>
2

> <PUBCHEM_CACTVS_SUBSKEYS>
AAADccBwIAAAAAAAAAAAAAAAAAAAAAAAAAAwAAAAAAAAAAABAAAAGgAAAAAADACgmAIyAIAABACAAiBCAAACAAAgAAAIiAAACIgIJiKAMRiAMAAkwAEIqAeAwCAOAAAAAAAAAAAAAAAAAAAAAAAAAAAAAA==

> <PUBCHEM_IUPAC_OPENEYE_NAME>
methoxymethylbenzene

> <PUBCHEM_IUPAC_CAS_NAME>
methoxymethylbenzene

> <PUBCHEM_IUPAC_NAME>
methoxymethylbenzene

> <PUBCHEM_IUPAC_SYSTEMATIC_NAME>
methoxymethylbenzene

> <PUBCHEM_IUPAC_TRADITIONAL_NAME>
methoxymethylbenzene

> <PUBCHEM_IUPAC_INCHI>
InChI=1S/C8H10O/c1-9-7-8-5-3-2-4-6-8/h2-6H,7H2,1H3

> <PUBCHEM_IUPAC_INCHIKEY>
GQKZBCPTCWJTAS-UHFFFAOYSA-N

> <PUBCHEM_XLOGP3>
1.9

> <PUBCHEM_EXACT_MASS>
122.073

> <PUBCHEM_MOLECULAR_FORMULA>
C8H10O

> <PUBCHEM_MOLECULAR_WEIGHT>
122.167

> <PUBCHEM_OPENEYE_CAN_SMILES>
COCC1=CC=CC=C1

> <PUBCHEM_OPENEYE_ISO_SMILES>
COCC1=CC=CC=C1

> <PUBCHEM_CACTVS_TPSA>
9.2

> <PUBCHEM_MONOISOTOPIC_WEIGHT>
122.073

> <PUBCHEM_TOTAL_CHARGE>
0

> <PUBCHEM_HEAVY_ATOM_COUNT>
9

> <PUBCHEM_ATOM_DEF_STEREO_COUNT>
0

> <PUBCHEM_ATOM_UDEF_STEREO_COUNT>
0

> <PUBCHEM_BOND_DEF_STEREO_COUNT>
0

> <PUBCHEM_BOND_UDEF_STEREO_COUNT>
0

> <PUBCHEM_ISOTOPIC_ATOM_COUNT>
0

> <PUBCHEM_COMPONENT_COUNT>
1

> <PUBCHEM_CACTVS_TAUTO_COUNT>
-1

> <PUBCHEM_COORDINATE_TYPE>
1
5
255

> <PUBCHEM_BONDANNOTATIONS>
2  4  8
2  5  8
4  6  8
5  7  8
6  8  8
7  8  8

$$$$
250096
  -OEChem-02201912152D

 28 28  0     0  0  0  0  0  0999 V2000
    3.7320    0.2500    0.0000 O   0  0  0  0  0  0  0  0  0  0  0  0
    2.8660    1.7500    0.0000 O   0  0  0  0  0  0  0  0  0  0  0  0
    2.8660   -1.2500    0.0000 C   0  0  0  0  0  0  0  0  0  0  0  0
    2.8660   -0.2500    0.0000 C   0  0  0  0  0  0  0  0  0  0  0  0
    2.0000   -1.7500    0.0000 C   0  0  0  0  0  0  0  0  0  0  0  0
    3.7320   -1.7500    0.0000 C   0  0  0  0  0  0  0  0  0  0  0  0
    4.5981    1.7500    0.0000 C   0  0  0  0  0  0  0  0  0  0  0  0
    3.7320    1.2500    0.0000 C   0  0  0  0  0  0  0  0  0  0  0  0
    2.0000   -2.7500    0.0000 C   0  0  0  0  0  0  0  0  0  0  0  0
    3.7320   -2.7500    0.0000 C   0  0  0  0  0  0  0  0  0  0  0  0
    2.8660   -3.2500    0.0000 C   0  0  0  0  0  0  0  0  0  0  0  0
    5.4641    1.2500    0.0000 C   0  0  0  0  0  0  0  0  0  0  0  0
    4.5981    2.7500    0.0000 C   0  0  0  0  0  0  0  0  0  0  0  0
    5.4641    3.2500    0.0000 C   0  0  0  0  0  0  0  0  0  0  0  0
    2.6540    0.3326    0.0000 H   0  0  0  0  0  0  0  0  0  0  0  0
    2.2554   -0.3577    0.0000 H   0  0  0  0  0  0  0  0  0  0  0  0
    1.4631   -1.4400    0.0000 H   0  0  0  0  0  0  0  0  0  0  0  0
    4.2690   -1.4400    0.0000 H   0  0  0  0  0  0  0  0  0  0  0  0
    1.4631   -3.0600    0.0000 H   0  0  0  0  0  0  0  0  0  0  0  0
    4.2690   -3.0600    0.0000 H   0  0  0  0  0  0  0  0  0  0  0  0
    2.8660   -3.8700    0.0000 H   0  0  0  0  0  0  0  0  0  0  0  0
    5.1541    0.7131    0.0000 H   0  0  0  0  0  0  0  0  0  0  0  0
    6.0010    0.9400    0.0000 H   0  0  0  0  0  0  0  0  0  0  0  0
    5.7741    1.7869    0.0000 H   0  0  0  0  0  0  0  0  0  0  0  0
    4.0611    3.0600    0.0000 H   0  0  0  0  0  0  0  0  0  0  0  0
    5.7741    2.7131    0.0000 H   0  0  0  0  0  0  0  0  0  0  0  0
    6.0010    3.5600    0.0000 H   0  0  0  0  0  0  0  0  0  0  0  0
    5.1541    3.7869    0.0000 H   0  0  0  0  0  0  0  0  0  0  0  0
  1  4  1  0  0  0  0
  1  8  1  0  0  0  0
  2  8  2  0  0  0  0
  3  4  1  0  0  0  0
  3  5  2  0  0  0  0
  3  6  1  0  0  0  0
  4 15  1  0  0  0  0
  4 16  1  0  0  0  0
  5  9  1  0  0  0  0
  5 17  1  0  0  0  0
  6 10  2  0  0  0  0
  6 18  1  0  0  0  0
  7  8  1  0  0  0  0
  7 12  1  0  0  0  0
  7 13  2  0  0  0  0
  9 11  2  0  0  0  0
  9 19  1  0  0  0  0
 10 11  1  0  0  0  0
 10 20  1  0  0  0  0
 11 21  1  0  0  0  0
 12 22  1  0  0  0  0
 12 23  1  0  0  0  0
 12 24  1  0  0  0  0
 13 14  1  0  0  0  0
 13 25  1  0  0  0  0
 14 26  1  0  0  0  0
 14 27  1  0  0  0  0
 14 28  1  0  0  0  0
M  END
> <PUBCHEM_COMPOUND_CID>
250096

> <PUBCHEM_COMPOUND_CANONICALIZED>
1

> <PUBCHEM_CACTVS_COMPLEXITY>
212

> <PUBCHEM_CACTVS_HBOND_ACCEPTOR>
2

> <PUBCHEM_CACTVS_HBOND_DONOR>
0

> <PUBCHEM_CACTVS_ROTATABLE_BOND>
4

> <PUBCHEM_CACTVS_SUBSKEYS>
AAADccBwMAAAAAAAAAAAAAAAAAAAAAAAAAAwAAAAAAAAAAABAAAAGgAAAAAADACgmAIyCIAABACIAiDSCAACAAAgAAAIiAEACMgIJiKAMRiCMAAkwAEIqYeAwCAOAAAAAAAAAAAAAAAAAAAAAAAAAAAAAA==

> <PUBCHEM_IUPAC_OPENEYE_NAME>
benzyl (~{E})-2-methylbut-2-enoate

> <PUBCHEM_IUPAC_CAS_NAME>
(~{E})-2-methyl-2-butenoic acid (phenylmethyl) ester

> <PUBCHEM_IUPAC_NAME>
benzyl (~{E})-2-methylbut-2-enoate

> <PUBCHEM_IUPAC_SYSTEMATIC_NAME>
(phenylmethyl) (~{E})-2-methylbut-2-enoate

> <PUBCHEM_IUPAC_TRADITIONAL_NAME>
(~{E})-2-methylbut-2-enoic acid benzyl ester

> <PUBCHEM_IUPAC_INCHI>
InChI=1S/C12H14O2/c1-3-10(2)12(13)14-9-11-7-5-4-6-8-11/h3-8H,9H2,1-2H3/b10-3+

> <PUBCHEM_IUPAC_INCHIKEY>
QRGSTISKDZCDHV-XCVCLJGOSA-N

> <PUBCHEM_XLOGP3_AA>
2.8

> <PUBCHEM_EXACT_MASS>
190.099

> <PUBCHEM_MOLECULAR_FORMULA>
C12H14O2

> <PUBCHEM_MOLECULAR_WEIGHT>
190.242

> <PUBCHEM_OPENEYE_CAN_SMILES>
CC=C(C)C(=O)OCC1=CC=CC=C1

> <PUBCHEM_OPENEYE_ISO_SMILES>
C/C=C(\C)/C(=O)OCC1=CC=CC=C1

> <PUBCHEM_CACTVS_TPSA>
26.3

> <PUBCHEM_MONOISOTOPIC_WEIGHT>
190.099

> <PUBCHEM_TOTAL_CHARGE>
0

> <PUBCHEM_HEAVY_ATOM_COUNT>
14

> <PUBCHEM_ATOM_DEF_STEREO_COUNT>
0

> <PUBCHEM_ATOM_UDEF_STEREO_COUNT>
0

> <PUBCHEM_BOND_DEF_STEREO_COUNT>
1

> <PUBCHEM_BOND_UDEF_STEREO_COUNT>
0

> <PUBCHEM_ISOTOPIC_ATOM_COUNT>
0

> <PUBCHEM_COMPONENT_COUNT>
1

> <PUBCHEM_CACTVS_TAUTO_COUNT>
-1

> <PUBCHEM_COORDINATE_TYPE>
1
5
255

> <PUBCHEM_BONDANNOTATIONS>
10  11  8
3  5  8
3  6  8
5  9  8
6  10  8
9  11  8

$$$$
637511
  -OEChem-02201912152D

 18 18  0     0  0  0  0  0  0999 V2000
    4.5981    2.5000    0.0000 O   0  0  0  0  0  0  0  0  0  0  0  0
    2.8660   -0.5000    0.0000 C   0  0  0  0  0  0  0  0  0  0  0  0
    3.7320   -1.0000    0.0000 C   0  0  0  0  0  0  0  0  0  0  0  0
    2.0000   -1.0000    0.0000 C   0  0  0  0  0  0  0  0  0  0  0  0
    3.7320   -2.0000    0.0000 C   0  0  0  0  0  0  0  0  0  0  0  0
    2.0000   -2.0000    0.0000 C   0  0  0  0  0  0  0  0  0  0  0  0
    2.8660    0.5000    0.0000 C   0  0  0  0  0  0  0  0  0  0  0  0
    2.8660   -2.5000    0.0000 C   0  0  0  0  0  0  0  0  0  0  0  0
    3.7320    1.0000    0.0000 C   0  0  0  0  0  0  0  0  0  0  0  0
    3.7320    2.0000    0.0000 C   0  0  0  0  0  0  0  0  0  0  0  0
    4.2690   -0.6900    0.0000 H   0  0  0  0  0  0  0  0  0  0  0  0
    1.4631   -0.6900    0.0000 H   0  0  0  0  0  0  0  0  0  0  0  0
    2.3291    0.8100    0.0000 H   0  0  0  0  0  0  0  0  0  0  0  0
    4.2690   -2.3100    0.0000 H   0  0  0  0  0  0  0  0  0  0  0  0
    1.4631   -2.3100    0.0000 H   0  0  0  0  0  0  0  0  0  0  0  0
    2.8660   -3.1200    0.0000 H   0  0  0  0  0  0  0  0  0  0  0  0
    4.2690    0.6900    0.0000 H   0  0  0  0  0  0  0  0  0  0  0  0
    3.1951    2.3100    0.0000 H   0  0  0  0  0  0  0  0  0  0  0  0
  1 10  2  0  0  0  0
  2  3  2  0  0  0  0
  2  4  1  0  0  0  0
  2  7  1  0  0  0  0
  3  5  1  0  0  0  0
  3 11  1  0  0  0  0
  4  6  2  0  0  0  0
  4 12  1  0  0  0  0
  5  8  2  0  0  0  0
  5 14  1  0  0  0  0
  6  8  1  0  0  0  0
  6 15  1  0  0  0  0
  7  9  2  0  0  0  0
  7 13  1  0  0  0  0
  8 16  1  0  0  0  0
  9 10  1  0  0  0  0
  9 17  1  0  0  0  0
 10 18  1  0  0  0  0
M  END
> <PUBCHEM_COMPOUND_CID>
637511

> <PUBCHEM_COMPOUND_CANONICALIZED>
1

> <PUBCHEM_CACTVS_COMPLEXITY>
121

> <PUBCHEM_CACTVS_HBOND_ACCEPTOR>
1

> <PUBCHEM_CACTVS_HBOND_DONOR>
0

> <PUBCHEM_CACTVS_ROTATABLE_BOND>
2

> <PUBCHEM_CACTVS_SUBSKEYS>
AAADccBwIAAAAAAAAAAAAAAAAAAAAAAAAAAwAAAAAAAAAAABAAAAGgAAAAAADACgmAIwAIAAAACIAihSgAACAAAgAAAIiAAAAMgIICKAERCAIAAggAAIiYcAgAAOAAAAAAAAAAAAAAAAAAAAAAAAAAAAAA==

> <PUBCHEM_IUPAC_OPENEYE_NAME>
(~{E})-3-phenylprop-2-enal

> <PUBCHEM_IUPAC_CAS_NAME>
(~{E})-3-phenyl-2-propenal

> <PUBCHEM_IUPAC_NAME>
(~{E})-3-phenylprop-2-enal

> <PUBCHEM_IUPAC_SYSTEMATIC_NAME>
(~{E})-3-phenylprop-2-enal

> <PUBCHEM_IUPAC_TRADITIONAL_NAME>
(~{E})-3-phenylacrolein

> <PUBCHEM_IUPAC_INCHI>
InChI=1S/C9H8O/c10-8-4-7-9-5-2-1-3-6-9/h1-8H/b7-4+

> <PUBCHEM_IUPAC_INCHIKEY>
KJPRLNWUNMBNBZ-QPJJXVBHSA-N

> <PUBCHEM_XLOGP3>
1.9

> <PUBCHEM_EXACT_MASS>
132.058

> <PUBCHEM_MOLECULAR_FORMULA>
C9H8O

> <PUBCHEM_MOLECULAR_WEIGHT>
132.162

> <PUBCHEM_OPENEYE_CAN_SMILES>
C1=CC=C(C=C1)C=CC=O

> <PUBCHEM_OPENEYE_ISO_SMILES>
C1=CC=C(C=C1)/C=C/C=O

> <PUBCHEM_CACTVS_TPSA>
17.1

> <PUBCHEM_MONOISOTOPIC_WEIGHT>
132.058

> <PUBCHEM_TOTAL_CHARGE>
0

> <PUBCHEM_HEAVY_ATOM_COUNT>
10

> <PUBCHEM_ATOM_DEF_STEREO_COUNT>
0

> <PUBCHEM_ATOM_UDEF_STEREO_COUNT>
0

> <PUBCHEM_BOND_DEF_STEREO_COUNT>
1

> <PUBCHEM_BOND_UDEF_STEREO_COUNT>
0

> <PUBCHEM_ISOTOPIC_ATOM_COUNT>
0

> <PUBCHEM_COMPONENT_COUNT>
1

> <PUBCHEM_CACTVS_TAUTO_COUNT>
-1

> <PUBCHEM_COORDINATE_TYPE>
1
5
255

> <PUBCHEM_BONDANNOTATIONS>
2  3  8
2  4  8
3  5  8
4  6  8
5  8  8
6  8  8

$$$$
5315892
  -OEChem-02201912152D

 20 20  0     0  0  0  0  0  0999 V2000
    4.5981    2.1900    0.0000 O   0  0  0  0  0  0  0  0  0  0  0  0
    2.8660   -0.8100    0.0000 C   0  0  0  0  0  0  0  0  0  0  0  0
    2.8660    0.1900    0.0000 C   0  0  0  0  0  0  0  0  0  0  0  0
    3.7320   -1.3100    0.0000 C   0  0  0  0  0  0  0  0  0  0  0  0
    2.0000   -1.3100    0.0000 C   0  0  0  0  0  0  0  0  0  0  0  0
    3.7320   -2.3100    0.0000 C   0  0  0  0  0  0  0  0  0  0  0  0
    2.0000   -2.3100    0.0000 C   0  0  0  0  0  0  0  0  0  0  0  0
    3.7320    0.6900    0.0000 C   0  0  0  0  0  0  0  0  0  0  0  0
    2.8660   -2.8100    0.0000 C   0  0  0  0  0  0  0  0  0  0  0  0
    3.7320    1.6900    0.0000 C   0  0  0  0  0  0  0  0  0  0  0  0
    2.3291    0.5000    0.0000 H   0  0  0  0  0  0  0  0  0  0  0  0
    4.2690   -1.0000    0.0000 H   0  0  0  0  0  0  0  0  0  0  0  0
    1.4631   -1.0000    0.0000 H   0  0  0  0  0  0  0  0  0  0  0  0
    4.2690   -2.6200    0.0000 H   0  0  0  0  0  0  0  0  0  0  0  0
    1.4631   -2.6200    0.0000 H   0  0  0  0  0  0  0  0  0  0  0  0
    4.2690    0.3800    0.0000 H   0  0  0  0  0  0  0  0  0  0  0  0
    2.8660   -3.4300    0.0000 H   0  0  0  0  0  0  0  0  0  0  0  0
    3.5200    2.2726    0.0000 H   0  0  0  0  0  0  0  0  0  0  0  0
    3.1215    1.5823    0.0000 H   0  0  0  0  0  0  0  0  0  0  0  0
    4.5981    2.8100    0.0000 H   0  0  0  0  0  0  0  0  0  0  0  0
  1 10  1  0  0  0  0
  1 20  1  0  0  0  0
  2  3  1  0  0  0  0
  2  4  2  0  0  0  0
  2  5  1  0  0  0  0
  3  8  2  0  0  0  0
  3 11  1  0  0  0  0
  4  6  1  0  0  0  0
  4 12  1  0  0  0  0
  5  7  2  0  0  0  0
  5 13  1  0  0  0  0
  6  9  2  0  0  0  0
  6 14  1  0  0  0  0
  7  9  1  0  0  0  0
  7 15  1  0  0  0  0
  8 10  1  0  0  0  0
  8 16  1  0  0  0  0
  9 17  1  0  0  0  0
 10 18  1  0  0  0  0
 10 19  1  0  0  0  0
M  END
> <PUBCHEM_COMPOUND_CID>
5315892

> <PUBCHEM_COMPOUND_CANONICALIZED>
1

> <PUBCHEM_CACTVS_COMPLEXITY>
101

> <PUBCHEM_CACTVS_HBOND_ACCEPTOR>
1

> <PUBCHEM_CACTVS_HBOND_DONOR>
1

> <PUBCHEM_CACTVS_ROTATABLE_BOND>
2

> <PUBCHEM_CACTVS_SUBSKEYS>
AAADccBwIAAAAAAAAAAAAAAAAAAAAAAAAAAwAAAAAAAAAAABAAAAGgAACAAADACgmAIwAIAAAgCAAiBCAAACAAAgAAAIiAAAAIgINCKAERCAMAAggAAImAcAgAAOAAAAAAAAAAAAAAAAAAAAAAAAAAAAAA==

> <PUBCHEM_IUPAC_OPENEYE_NAME>
(~{E})-3-phenylprop-2-en-1-ol

> <PUBCHEM_IUPAC_CAS_NAME>
(~{E})-3-phenyl-2-propen-1-ol

> <PUBCHEM_IUPAC_NAME>
(~{E})-3-phenylprop-2-en-1-ol

> <PUBCHEM_IUPAC_SYSTEMATIC_NAME>
(~{E})-3-phenylprop-2-en-1-ol

> <PUBCHEM_IUPAC_TRADITIONAL_NAME>
(~{E})-3-phenylprop-2-en-1-ol

> <PUBCHEM_IUPAC_INCHI>
InChI=1S/C9H10O/c10-8-4-7-9-5-2-1-3-6-9/h1-7,10H,8H2/b7-4+

> <PUBCHEM_IUPAC_INCHIKEY>
OOCCDEMITAIZTP-QPJJXVBHSA-N

> <PUBCHEM_XLOGP3>
1.9

> <PUBCHEM_EXACT_MASS>
134.073

> <PUBCHEM_MOLECULAR_FORMULA>
C9H10O

> <PUBCHEM_MOLECULAR_WEIGHT>
134.178

> <PUBCHEM_OPENEYE_CAN_SMILES>
C1=CC=C(C=C1)C=CCO

> <PUBCHEM_OPENEYE_ISO_SMILES>
C1=CC=C(C=C1)/C=C/CO

> <PUBCHEM_CACTVS_TPSA>
20.2

> <PUBCHEM_MONOISOTOPIC_WEIGHT>
134.073

> <PUBCHEM_TOTAL_CHARGE>
0

> <PUBCHEM_HEAVY_ATOM_COUNT>
10

> <PUBCHEM_ATOM_DEF_STEREO_COUNT>
0

> <PUBCHEM_ATOM_UDEF_STEREO_COUNT>
0

> <PUBCHEM_BOND_DEF_STEREO_COUNT>
1

> <PUBCHEM_BOND_UDEF_STEREO_COUNT>
0

> <PUBCHEM_ISOTOPIC_ATOM_COUNT>
0

> <PUBCHEM_COMPONENT_COUNT>
1

> <PUBCHEM_CACTVS_TAUTO_COUNT>
-1

> <PUBCHEM_COORDINATE_TYPE>
1
5
255

> <PUBCHEM_BONDANNOTATIONS>
2  4  8
2  5  8
4  6  8
5  7  8
6  9  8
7  9  8

$$$$
61151
  -OEChem-02201912152D

 22 22  0     0  0  0  0  0  0999 V2000
    2.8660   -0.2500    0.0000 O   0  0  0  0  0  0  0  0  0  0  0  0
    5.4641    1.2500    0.0000 O   0  0  0  0  0  0  0  0  0  0  0  0
    3.7320    1.2500    0.0000 O   0  0  0  0  0  0  0  0  0  0  0  0
    4.5981   -0.2500    0.0000 C   0  0  0  0  0  0  0  0  0  0  0  0
    3.7320   -0.7500    0.0000 C   0  0  0  0  0  0  0  0  0  0  0  0
    5.4641   -0.7500    0.0000 C   0  0  0  0  0  0  0  0  0  0  0  0
    3.7320   -1.7500    0.0000 C   0  0  0  0  0  0  0  0  0  0  0  0
    5.4641   -1.7500    0.0000 C   0  0  0  0  0  0  0  0  0  0  0  0
    4.5981   -2.2500    0.0000 C   0  0  0  0  0  0  0  0  0  0  0  0
    4.5981    0.7500    0.0000 C   0  0  0  0  0  0  0  0  0  0  0  0
    2.0000   -0.7500    0.0000 C   0  0  0  0  0  0  0  0  0  0  0  0
    5.4641    2.2500    0.0000 C   0  0  0  0  0  0  0  0  0  0  0  0
    6.0010   -0.4400    0.0000 H   0  0  0  0  0  0  0  0  0  0  0  0
    3.1951   -2.0600    0.0000 H   0  0  0  0  0  0  0  0  0  0  0  0
    6.0010   -2.0600    0.0000 H   0  0  0  0  0  0  0  0  0  0  0  0
    4.5981   -2.8700    0.0000 H   0  0  0  0  0  0  0  0  0  0  0  0
    1.6900   -0.2131    0.0000 H   0  0  0  0  0  0  0  0  0  0  0  0
    1.4631   -1.0600    0.0000 H   0  0  0  0  0  0  0  0  0  0  0  0
    2.3100   -1.2869    0.0000 H   0  0  0  0  0  0  0  0  0  0  0  0
    6.0841    2.2500    0.0000 H   0  0  0  0  0  0  0  0  0  0  0  0
    5.4641    2.8700    0.0000 H   0  0  0  0  0  0  0  0  0  0  0  0
    4.8441    2.2500    0.0000 H   0  0  0  0  0  0  0  0  0  0  0  0
  1  5  1  0  0  0  0
  1 11  1  0  0  0  0
  2 10  1  0  0  0  0
  2 12  1  0  0  0  0
  3 10  2  0  0  0  0
  4  5  1  0  0  0  0
  4  6  2  0  0  0  0
  4 10  1  0  0  0  0
  5  7  2  0  0  0  0
  6  8  1  0  0  0  0
  6 13  1  0  0  0  0
  7  9  1  0  0  0  0
  7 14  1  0  0  0  0
  8  9  2  0  0  0  0
  8 15  1  0  0  0  0
  9 16  1  0  0  0  0
 11 17  1  0  0  0  0
 11 18  1  0  0  0  0
 11 19  1  0  0  0  0
 12 20  1  0  0  0  0
 12 21  1  0  0  0  0
 12 22  1  0  0  0  0
M  END
> <PUBCHEM_COMPOUND_CID>
61151

> <PUBCHEM_COMPOUND_CANONICALIZED>
1

> <PUBCHEM_CACTVS_COMPLEXITY>
156

> <PUBCHEM_CACTVS_HBOND_ACCEPTOR>
3

> <PUBCHEM_CACTVS_HBOND_DONOR>
0

> <PUBCHEM_CACTVS_ROTATABLE_BOND>
3

> <PUBCHEM_CACTVS_SUBSKEYS>
AAADccBwMAAAAAAAAAAAAAAAAAAAAAAAAAAwAAAAAAAAAAABAAAAGgAAAAAADASAmAIyDoAABACIAiDSCAACCAAkIAAIiAEGCMgMJzaENRqAMWAl4BEIqYeIyCCOAAAAAAAIAAAAAAAAABAAAAAAAAAAAA==

> <PUBCHEM_IUPAC_OPENEYE_NAME>
methyl 2-methoxybenzoate

> <PUBCHEM_IUPAC_CAS_NAME>
2-methoxybenzoic acid methyl ester

> <PUBCHEM_IUPAC_NAME>
methyl 2-methoxybenzoate

> <PUBCHEM_IUPAC_SYSTEMATIC_NAME>
methyl 2-methoxybenzoate

> <PUBCHEM_IUPAC_TRADITIONAL_NAME>
2-methoxybenzoic acid methyl ester

> <PUBCHEM_IUPAC_INCHI>
InChI=1S/C9H10O3/c1-11-8-6-4-3-5-7(8)9(10)12-2/h3-6H,1-2H3

> <PUBCHEM_IUPAC_INCHIKEY>
PFYHAAAQPNMZHO-UHFFFAOYSA-N

> <PUBCHEM_XLOGP3>
2

> <PUBCHEM_EXACT_MASS>
166.063

> <PUBCHEM_MOLECULAR_FORMULA>
C9H10O3

> <PUBCHEM_MOLECULAR_WEIGHT>
166.176

> <PUBCHEM_OPENEYE_CAN_SMILES>
COC1=CC=CC=C1C(=O)OC

> <PUBCHEM_OPENEYE_ISO_SMILES>
COC1=CC=CC=C1C(=O)OC

> <PUBCHEM_CACTVS_TPSA>
35.5

> <PUBCHEM_MONOISOTOPIC_WEIGHT>
166.063

> <PUBCHEM_TOTAL_CHARGE>
0

> <PUBCHEM_HEAVY_ATOM_COUNT>
12

> <PUBCHEM_ATOM_DEF_STEREO_COUNT>
0

> <PUBCHEM_ATOM_UDEF_STEREO_COUNT>
0

> <PUBCHEM_BOND_DEF_STEREO_COUNT>
0

> <PUBCHEM_BOND_UDEF_STEREO_COUNT>
0

> <PUBCHEM_ISOTOPIC_ATOM_COUNT>
0

> <PUBCHEM_COMPONENT_COUNT>
1

> <PUBCHEM_CACTVS_TAUTO_COUNT>
1

> <PUBCHEM_COORDINATE_TYPE>
1
5
255

> <PUBCHEM_BONDANNOTATIONS>
4  5  8
4  6  8
5  7  8
6  8  8
7  9  8
8  9  8

$$$$
8815
  -OEChem-02201912152D

 23 23  0     0  0  0  0  0  0999 V2000
    2.8660   -2.5000    0.0000 O   0  0  0  0  0  0  0  0  0  0  0  0
    2.8660    0.5000    0.0000 C   0  0  0  0  0  0  0  0  0  0  0  0
    2.8660    1.5000    0.0000 C   0  0  0  0  0  0  0  0  0  0  0  0
    3.7320   -0.0000    0.0000 C   0  0  0  0  0  0  0  0  0  0  0  0
    2.0000    0.0000    0.0000 C   0  0  0  0  0  0  0  0  0  0  0  0
    2.8660   -1.5000    0.0000 C   0  0  0  0  0  0  0  0  0  0  0  0
    3.7320   -1.0000    0.0000 C   0  0  0  0  0  0  0  0  0  0  0  0
    2.0000   -1.0000    0.0000 C   0  0  0  0  0  0  0  0  0  0  0  0
    3.7320    2.0000    0.0000 C   0  0  0  0  0  0  0  0  0  0  0  0
    2.0000   -3.0000    0.0000 C   0  0  0  0  0  0  0  0  0  0  0  0
    3.7320    3.0000    0.0000 C   0  0  0  0  0  0  0  0  0  0  0  0
    2.6540    2.0826    0.0000 H   0  0  0  0  0  0  0  0  0  0  0  0
    2.2554    1.3923    0.0000 H   0  0  0  0  0  0  0  0  0  0  0  0
    4.2690    0.3100    0.0000 H   0  0  0  0  0  0  0  0  0  0  0  0
    1.4631    0.3100    0.0000 H   0  0  0  0  0  0  0  0  0  0  0  0
    4.2690   -1.3100    0.0000 H   0  0  0  0  0  0  0  0  0  0  0  0
    1.4631   -1.3100    0.0000 H   0  0  0  0  0  0  0  0  0  0  0  0
    4.2690    1.6900    0.0000 H   0  0  0  0  0  0  0  0  0  0  0  0
    1.6900   -2.4631    0.0000 H   0  0  0  0  0  0  0  0  0  0  0  0
    1.4631   -3.3100    0.0000 H   0  0  0  0  0  0  0  0  0  0  0  0
    2.3100   -3.5369    0.0000 H   0  0  0  0  0  0  0  0  0  0  0  0
    4.2690    3.3100    0.0000 H   0  0  0  0  0  0  0  0  0  0  0  0
    3.1951    3.3100    0.0000 H   0  0  0  0  0  0  0  0  0  0  0  0
  1  6  1  0  0  0  0
  1 10  1  0  0  0  0
  2  3  1  0  0  0  0
  2  4  2  0  0  0  0
  2  5  1  0  0  0  0
  3  9  1  0  0  0  0
  3 12  1  0  0  0  0
  3 13  1  0  0  0  0
  4  7  1  0  0  0  0
  4 14  1  0  0  0  0
  5  8  2  0  0  0  0
  5 15  1  0  0  0  0
  6  7  2  0  0  0  0
  6  8  1  0  0  0  0
  7 16  1  0  0  0  0
  8 17  1  0  0  0  0
  9 11  2  0  0  0  0
  9 18  1  0  0  0  0
 10 19  1  0  0  0  0
 10 20  1  0  0  0  0
 10 21  1  0  0  0  0
 11 22  1  0  0  0  0
 11 23  1  0  0  0  0
M  END
> <PUBCHEM_COMPOUND_CID>
8815

> <PUBCHEM_COMPOUND_CANONICALIZED>
1

> <PUBCHEM_CACTVS_COMPLEXITY>
112

> <PUBCHEM_CACTVS_HBOND_ACCEPTOR>
1

> <PUBCHEM_CACTVS_HBOND_DONOR>
0

> <PUBCHEM_CACTVS_ROTATABLE_BOND>
3

> <PUBCHEM_CACTVS_SUBSKEYS>
AAADccBwIAAAAAAAAAAAAAAAAAAAAAAAAAAwAAAAAAAAAAABAAAAGgAAAAAADASAmAIyBoAABACAAiBCAAACCAAgIAAIiAAGCIgMJiKEMRqAMCAkwBEIqAeAwIAOIAAAAAAAAABAAAAAAAAAAAAAAAAAAA==

> <PUBCHEM_IUPAC_OPENEYE_NAME>
1-allyl-4-methoxy-benzene

> <PUBCHEM_IUPAC_CAS_NAME>
1-methoxy-4-prop-2-enylbenzene

> <PUBCHEM_IUPAC_NAME>
1-methoxy-4-prop-2-enylbenzene

> <PUBCHEM_IUPAC_SYSTEMATIC_NAME>
1-methoxy-4-prop-2-enyl-benzene

> <PUBCHEM_IUPAC_TRADITIONAL_NAME>
1-allyl-4-methoxy-benzene

> <PUBCHEM_IUPAC_INCHI>
InChI=1S/C10H12O/c1-3-4-9-5-7-10(11-2)8-6-9/h3,5-8H,1,4H2,2H3

> <PUBCHEM_IUPAC_INCHIKEY>
ZFMSMUAANRJZFM-UHFFFAOYSA-N

> <PUBCHEM_XLOGP3>
3.4

> <PUBCHEM_EXACT_MASS>
148.089

> <PUBCHEM_MOLECULAR_FORMULA>
C10H12O

> <PUBCHEM_MOLECULAR_WEIGHT>
148.205

> <PUBCHEM_OPENEYE_CAN_SMILES>
COC1=CC=C(C=C1)CC=C

> <PUBCHEM_OPENEYE_ISO_SMILES>
COC1=CC=C(C=C1)CC=C

> <PUBCHEM_CACTVS_TPSA>
9.2

> <PUBCHEM_MONOISOTOPIC_WEIGHT>
148.089

> <PUBCHEM_TOTAL_CHARGE>
0

> <PUBCHEM_HEAVY_ATOM_COUNT>
11

> <PUBCHEM_ATOM_DEF_STEREO_COUNT>
0

> <PUBCHEM_ATOM_UDEF_STEREO_COUNT>
0

> <PUBCHEM_BOND_DEF_STEREO_COUNT>
0

> <PUBCHEM_BOND_UDEF_STEREO_COUNT>
0

> <PUBCHEM_ISOTOPIC_ATOM_COUNT>
0

> <PUBCHEM_COMPONENT_COUNT>
1

> <PUBCHEM_CACTVS_TAUTO_COUNT>
-1

> <PUBCHEM_COORDINATE_TYPE>
1
5
255

> <PUBCHEM_BONDANNOTATIONS>
2  4  8
2  5  8
4  7  8
5  8  8
6  7  8
6  8  8

$$$$
3314
  -OEChem-02201912152D

 24 24  0     0  0  0  0  0  0999 V2000
    4.2690    2.0000    0.0000 O   0  0  0  0  0  0  0  0  0  0  0  0
    2.5369    1.0000    0.0000 O   0  0  0  0  0  0  0  0  0  0  0  0
    5.1350   -0.5000    0.0000 C   0  0  0  0  0  0  0  0  0  0  0  0
    6.0010   -1.0000    0.0000 C   0  0  0  0  0  0  0  0  0  0  0  0
    5.1350    0.5000    0.0000 C   0  0  0  0  0  0  0  0  0  0  0  0
    4.2690    1.0000    0.0000 C   0  0  0  0  0  0  0  0  0  0  0  0
    4.2690   -1.0000    0.0000 C   0  0  0  0  0  0  0  0  0  0  0  0
    3.4030    0.5000    0.0000 C   0  0  0  0  0  0  0  0  0  0  0  0
    3.4030   -0.5000    0.0000 C   0  0  0  0  0  0  0  0  0  0  0  0
    6.0010   -2.0000    0.0000 C   0  0  0  0  0  0  0  0  0  0  0  0
    5.1350    2.5000    0.0000 C   0  0  0  0  0  0  0  0  0  0  0  0
    6.8671   -2.5000    0.0000 C   0  0  0  0  0  0  0  0  0  0  0  0
    6.6116   -1.1077    0.0000 H   0  0  0  0  0  0  0  0  0  0  0  0
    6.2131   -0.4174    0.0000 H   0  0  0  0  0  0  0  0  0  0  0  0
    5.6720    0.8100    0.0000 H   0  0  0  0  0  0  0  0  0  0  0  0
    4.2690   -1.6200    0.0000 H   0  0  0  0  0  0  0  0  0  0  0  0
    2.8660   -0.8100    0.0000 H   0  0  0  0  0  0  0  0  0  0  0  0
    5.4641   -2.3100    0.0000 H   0  0  0  0  0  0  0  0  0  0  0  0
    5.4450    1.9631    0.0000 H   0  0  0  0  0  0  0  0  0  0  0  0
    5.6720    2.8100    0.0000 H   0  0  0  0  0  0  0  0  0  0  0  0
    4.8250    3.0369    0.0000 H   0  0  0  0  0  0  0  0  0  0  0  0
    2.0000    0.6900    0.0000 H   0  0  0  0  0  0  0  0  0  0  0  0
    6.8671   -3.1200    0.0000 H   0  0  0  0  0  0  0  0  0  0  0  0
    7.4040   -2.1900    0.0000 H   0  0  0  0  0  0  0  0  0  0  0  0
  1  6  1  0  0  0  0
  1 11  1  0  0  0  0
  2  8  1  0  0  0  0
  2 22  1  0  0  0  0
  3  4  1  0  0  0  0
  3  5  2  0  0  0  0
  3  7  1  0  0  0  0
  4 10  1  0  0  0  0
  4 13  1  0  0  0  0
  4 14  1  0  0  0  0
  5  6  1  0  0  0  0
  5 15  1  0  0  0  0
  6  8  2  0  0  0  0
  7  9  2  0  0  0  0
  7 16  1  0  0  0  0
  8  9  1  0  0  0  0
  9 17  1  0  0  0  0
 10 12  2  0  0  0  0
 10 18  1  0  0  0  0
 11 19  1  0  0  0  0
 11 20  1  0  0  0  0
 11 21  1  0  0  0  0
 12 23  1  0  0  0  0
 12 24  1  0  0  0  0
M  END
> <PUBCHEM_COMPOUND_CID>
3314

> <PUBCHEM_COMPOUND_CANONICALIZED>
1

> <PUBCHEM_CACTVS_COMPLEXITY>
145

> <PUBCHEM_CACTVS_HBOND_ACCEPTOR>
2

> <PUBCHEM_CACTVS_HBOND_DONOR>
1

> <PUBCHEM_CACTVS_ROTATABLE_BOND>
3

> <PUBCHEM_CACTVS_SUBSKEYS>
AAADccBwMAAAAAAAAAAAAAAAAAAAAAAAAAAwAAAAAAAAAAABAAAAGgAACAAADASAmAIyBoAABgCAAiBCAAACCAAgIAAIiAAGiIgNJiKGMRqAcCMkwBELuAeAwLAOIAABAAAAQABAAAIAAACAAAAAAAAAAA==

> <PUBCHEM_IUPAC_OPENEYE_NAME>
4-allyl-2-methoxy-phenol

> <PUBCHEM_IUPAC_CAS_NAME>
2-methoxy-4-prop-2-enylphenol

> <PUBCHEM_IUPAC_NAME>
2-methoxy-4-prop-2-enylphenol

> <PUBCHEM_IUPAC_SYSTEMATIC_NAME>
2-methoxy-4-prop-2-enyl-phenol

> <PUBCHEM_IUPAC_TRADITIONAL_NAME>
eugenol

> <PUBCHEM_IUPAC_INCHI>
InChI=1S/C10H12O2/c1-3-4-8-5-6-9(11)10(7-8)12-2/h3,5-7,11H,1,4H2,2H3

> <PUBCHEM_IUPAC_INCHIKEY>
RRAFCDWBNXTKKO-UHFFFAOYSA-N

> <PUBCHEM_XLOGP3>
2

> <PUBCHEM_EXACT_MASS>
164.084

> <PUBCHEM_MOLECULAR_FORMULA>
C10H12O2

> <PUBCHEM_MOLECULAR_WEIGHT>
164.204

> <PUBCHEM_OPENEYE_CAN_SMILES>
COC1=C(C=CC(=C1)CC=C)O

> <PUBCHEM_OPENEYE_ISO_SMILES>
COC1=C(C=CC(=C1)CC=C)O

> <PUBCHEM_CACTVS_TPSA>
29.5

> <PUBCHEM_MONOISOTOPIC_WEIGHT>
164.084

> <PUBCHEM_TOTAL_CHARGE>
0

> <PUBCHEM_HEAVY_ATOM_COUNT>
12

> <PUBCHEM_ATOM_DEF_STEREO_COUNT>
0

> <PUBCHEM_ATOM_UDEF_STEREO_COUNT>
0

> <PUBCHEM_BOND_DEF_STEREO_COUNT>
0

> <PUBCHEM_BOND_UDEF_STEREO_COUNT>
0

> <PUBCHEM_ISOTOPIC_ATOM_COUNT>
0

> <PUBCHEM_COMPONENT_COUNT>
1

> <PUBCHEM_CACTVS_TAUTO_COUNT>
-1

> <PUBCHEM_COORDINATE_TYPE>
1
5
255

> <PUBCHEM_BONDANNOTATIONS>
3  5  8
3  7  8
5  6  8
6  8  8
7  9  8
8  9  8

$$$$
798
  -OEChem-02201912152D

 16 17  0     0  0  0  0  0  0999 V2000
    4.6783   -0.6077    0.0000 N   0  0  0  0  0  0  0  0  0  0  0  0
    3.7320   -0.3030    0.0000 C   0  0  0  0  0  0  0  0  0  0  0  0
    3.7320    0.6970    0.0000 C   0  0  0  0  0  0  0  0  0  0  0  0
    4.6783    1.0018    0.0000 C   0  0  0  0  0  0  0  0  0  0  0  0
    2.8660   -0.8030    0.0000 C   0  0  0  0  0  0  0  0  0  0  0  0
    2.8660    1.1970    0.0000 C   0  0  0  0  0  0  0  0  0  0  0  0
    5.2619    0.1970    0.0000 C   0  0  0  0  0  0  0  0  0  0  0  0
    2.0000   -0.3030    0.0000 C   0  0  0  0  0  0  0  0  0  0  0  0
    2.0000    0.6970    0.0000 C   0  0  0  0  0  0  0  0  0  0  0  0
    4.8709   -1.1970    0.0000 H   0  0  0  0  0  0  0  0  0  0  0  0
    4.8709    1.5911    0.0000 H   0  0  0  0  0  0  0  0  0  0  0  0
    2.8660   -1.4230    0.0000 H   0  0  0  0  0  0  0  0  0  0  0  0
    2.8660    1.8170    0.0000 H   0  0  0  0  0  0  0  0  0  0  0  0
    5.8819    0.1970    0.0000 H   0  0  0  0  0  0  0  0  0  0  0  0
    1.4631   -0.6130    0.0000 H   0  0  0  0  0  0  0  0  0  0  0  0
    1.4631    1.0070    0.0000 H   0  0  0  0  0  0  0  0  0  0  0  0
  1  2  1  0  0  0  0
  1  7  1  0  0  0  0
  1 10  1  0  0  0  0
  2  3  1  0  0  0  0
  2  5  2  0  0  0  0
  3  4  1  0  0  0  0
  3  6  2  0  0  0  0
  4  7  2  0  0  0  0
  4 11  1  0  0  0  0
  5  8  1  0  0  0  0
  5 12  1  0  0  0  0
  6  9  1  0  0  0  0
  6 13  1  0  0  0  0
  7 14  1  0  0  0  0
  8  9  2  0  0  0  0
  8 15  1  0  0  0  0
  9 16  1  0  0  0  0
M  END
> <PUBCHEM_COMPOUND_CID>
798

> <PUBCHEM_COMPOUND_CANONICALIZED>
1

> <PUBCHEM_CACTVS_COMPLEXITY>
101

> <PUBCHEM_CACTVS_HBOND_ACCEPTOR>
0

> <PUBCHEM_CACTVS_HBOND_DONOR>
1

> <PUBCHEM_CACTVS_ROTATABLE_BOND>
0

> <PUBCHEM_CACTVS_SUBSKEYS>
AAADcYByAAAAAAAAAAAAAAAAAAAAAWAAAAAwAAAAAAAAAFgB8AAAHAAQAAAADAjBHgQ8wPLJkACgAzRnRACCgCAxAiAI2aA4ZJgIIOLAkZGEIAhgkADIyAcQgIAOAAAAAAACAAAAAAAAAAQAAAAAAAAAAA==

> <PUBCHEM_IUPAC_OPENEYE_NAME>
indole

> <PUBCHEM_IUPAC_CAS_NAME>
1~{H}-indole

> <PUBCHEM_IUPAC_NAME>
1~{H}-indole

> <PUBCHEM_IUPAC_SYSTEMATIC_NAME>
1~{H}-indole

> <PUBCHEM_IUPAC_TRADITIONAL_NAME>
indole

> <PUBCHEM_IUPAC_INCHI>
InChI=1S/C8H7N/c1-2-4-8-7(3-1)5-6-9-8/h1-6,9H

> <PUBCHEM_IUPAC_INCHIKEY>
SIKJAQJRHWYJAI-UHFFFAOYSA-N

> <PUBCHEM_XLOGP3>
2.1

> <PUBCHEM_EXACT_MASS>
117.058

> <PUBCHEM_MOLECULAR_FORMULA>
C8H7N

> <PUBCHEM_MOLECULAR_WEIGHT>
117.151

> <PUBCHEM_OPENEYE_CAN_SMILES>
C1=CC=C2C(=C1)C=CN2

> <PUBCHEM_OPENEYE_ISO_SMILES>
C1=CC=C2C(=C1)C=CN2

> <PUBCHEM_CACTVS_TPSA>
15.8

> <PUBCHEM_MONOISOTOPIC_WEIGHT>
117.058

> <PUBCHEM_TOTAL_CHARGE>
0

> <PUBCHEM_HEAVY_ATOM_COUNT>
9

> <PUBCHEM_ATOM_DEF_STEREO_COUNT>
0

> <PUBCHEM_ATOM_UDEF_STEREO_COUNT>
0

> <PUBCHEM_BOND_DEF_STEREO_COUNT>
0

> <PUBCHEM_BOND_UDEF_STEREO_COUNT>
0

> <PUBCHEM_ISOTOPIC_ATOM_COUNT>
0

> <PUBCHEM_COMPONENT_COUNT>
1

> <PUBCHEM_CACTVS_TAUTO_COUNT>
-1

> <PUBCHEM_COORDINATE_TYPE>
1
5
255

> <PUBCHEM_BONDANNOTATIONS>
1  2  8
1  7  8
2  3  8
2  5  8
3  4  8
3  6  8
4  7  8
5  8  8
6  9  8
8  9  8

$$$$
7193
  -OEChem-02201912152D

 30 30  0     0  0  0  0  0  0999 V2000
    3.7320    0.2500    0.0000 O   0  0  0  0  0  0  0  0  0  0  0  0
    2.0000    0.2500    0.0000 O   0  0  0  0  0  0  0  0  0  0  0  0
    4.5981    2.7500    0.0000 C   0  0  0  0  0  0  0  0  0  0  0  0
    4.5981    1.7500    0.0000 C   0  0  0  0  0  0  0  0  0  0  0  0
    3.7320    1.2500    0.0000 C   0  0  0  0  0  0  0  0  0  0  0  0
    5.4641    3.2500    0.0000 C   0  0  0  0  0  0  0  0  0  0  0  0
    3.7320    3.2500    0.0000 C   0  0  0  0  0  0  0  0  0  0  0  0
    2.8660   -0.2500    0.0000 C   0  0  0  0  0  0  0  0  0  0  0  0
    2.8660   -1.2500    0.0000 C   0  0  0  0  0  0  0  0  0  0  0  0
    3.7320   -1.7500    0.0000 C   0  0  0  0  0  0  0  0  0  0  0  0
    2.0000   -1.7500    0.0000 C   0  0  0  0  0  0  0  0  0  0  0  0
    3.7320   -2.7500    0.0000 C   0  0  0  0  0  0  0  0  0  0  0  0
    2.0000   -2.7500    0.0000 C   0  0  0  0  0  0  0  0  0  0  0  0
    2.8660   -3.2500    0.0000 C   0  0  0  0  0  0  0  0  0  0  0  0
    4.5981    3.3700    0.0000 H   0  0  0  0  0  0  0  0  0  0  0  0
    4.8101    1.1674    0.0000 H   0  0  0  0  0  0  0  0  0  0  0  0
    5.2087    1.8577    0.0000 H   0  0  0  0  0  0  0  0  0  0  0  0
    3.5200    1.8326    0.0000 H   0  0  0  0  0  0  0  0  0  0  0  0
    3.1215    1.1423    0.0000 H   0  0  0  0  0  0  0  0  0  0  0  0
    5.7741    2.7131    0.0000 H   0  0  0  0  0  0  0  0  0  0  0  0
    6.0010    3.5600    0.0000 H   0  0  0  0  0  0  0  0  0  0  0  0
    5.1541    3.7869    0.0000 H   0  0  0  0  0  0  0  0  0  0  0  0
    4.0420    3.7869    0.0000 H   0  0  0  0  0  0  0  0  0  0  0  0
    3.1951    3.5600    0.0000 H   0  0  0  0  0  0  0  0  0  0  0  0
    3.4220    2.7131    0.0000 H   0  0  0  0  0  0  0  0  0  0  0  0
    4.2690   -1.4400    0.0000 H   0  0  0  0  0  0  0  0  0  0  0  0
    1.4631   -1.4400    0.0000 H   0  0  0  0  0  0  0  0  0  0  0  0
    4.2690   -3.0600    0.0000 H   0  0  0  0  0  0  0  0  0  0  0  0
    1.4631   -3.0600    0.0000 H   0  0  0  0  0  0  0  0  0  0  0  0
    2.8660   -3.8700    0.0000 H   0  0  0  0  0  0  0  0  0  0  0  0
  1  5  1  0  0  0  0
  1  8  1  0  0  0  0
  2  8  2  0  0  0  0
  3  4  1  0  0  0  0
  3  6  1  0  0  0  0
  3  7  1  0  0  0  0
  3 15  1  0  0  0  0
  4  5  1  0  0  0  0
  4 16  1  0  0  0  0
  4 17  1  0  0  0  0
  5 18  1  0  0  0  0
  5 19  1  0  0  0  0
  6 20  1  0  0  0  0
  6 21  1  0  0  0  0
  6 22  1  0  0  0  0
  7 23  1  0  0  0  0
  7 24  1  0  0  0  0
  7 25  1  0  0  0  0
  8  9  1  0  0  0  0
  9 10  2  0  0  0  0
  9 11  1  0  0  0  0
 10 12  1  0  0  0  0
 10 26  1  0  0  0  0
 11 13  2  0  0  0  0
 11 27  1  0  0  0  0
 12 14  2  0  0  0  0
 12 28  1  0  0  0  0
 13 14  1  0  0  0  0
 13 29  1  0  0  0  0
 14 30  1  0  0  0  0
M  END
> <PUBCHEM_COMPOUND_CID>
7193

> <PUBCHEM_COMPOUND_CANONICALIZED>
1

> <PUBCHEM_CACTVS_COMPLEXITY>
169

> <PUBCHEM_CACTVS_HBOND_ACCEPTOR>
2

> <PUBCHEM_CACTVS_HBOND_DONOR>
0

> <PUBCHEM_CACTVS_ROTATABLE_BOND>
5

> <PUBCHEM_CACTVS_SUBSKEYS>
AAADceBwMAAAAAAAAAAAAAAAAAAAAAAAAAAwAAAAAAAAAAABAAAAGgAAAAAADQCgmAIyCIAABACIAiDSCAACAAAkAAAIiAEACMgIJjKANRiCMQAkwAEIqYeIyCCOAAAAAAAAAAAAAAAAAAAAAAAAAAAAAA==

> <PUBCHEM_IUPAC_OPENEYE_NAME>
isopentyl benzoate

> <PUBCHEM_IUPAC_CAS_NAME>
benzoic acid 3-methylbutyl ester

> <PUBCHEM_IUPAC_NAME>
3-methylbutyl benzoate

> <PUBCHEM_IUPAC_SYSTEMATIC_NAME>
3-methylbutyl benzoate

> <PUBCHEM_IUPAC_TRADITIONAL_NAME>
benzoic acid isoamyl ester

> <PUBCHEM_IUPAC_INCHI>
InChI=1S/C12H16O2/c1-10(2)8-9-14-12(13)11-6-4-3-5-7-11/h3-7,10H,8-9H2,1-2H3

> <PUBCHEM_IUPAC_INCHIKEY>
MLLAPOCBLWUFAP-UHFFFAOYSA-N

> <PUBCHEM_XLOGP3>
3.8

> <PUBCHEM_EXACT_MASS>
192.115

> <PUBCHEM_MOLECULAR_FORMULA>
C12H16O2

> <PUBCHEM_MOLECULAR_WEIGHT>
192.258

> <PUBCHEM_OPENEYE_CAN_SMILES>
CC(C)CCOC(=O)C1=CC=CC=C1

> <PUBCHEM_OPENEYE_ISO_SMILES>
CC(C)CCOC(=O)C1=CC=CC=C1

> <PUBCHEM_CACTVS_TPSA>
26.3

> <PUBCHEM_MONOISOTOPIC_WEIGHT>
192.115

> <PUBCHEM_TOTAL_CHARGE>
0

> <PUBCHEM_HEAVY_ATOM_COUNT>
14

> <PUBCHEM_ATOM_DEF_STEREO_COUNT>
0

> <PUBCHEM_ATOM_UDEF_STEREO_COUNT>
0

> <PUBCHEM_BOND_DEF_STEREO_COUNT>
0

> <PUBCHEM_BOND_UDEF_STEREO_COUNT>
0

> <PUBCHEM_ISOTOPIC_ATOM_COUNT>
0

> <PUBCHEM_COMPONENT_COUNT>
1

> <PUBCHEM_CACTVS_TAUTO_COUNT>
-1

> <PUBCHEM_COORDINATE_TYPE>
1
5
255

> <PUBCHEM_BONDANNOTATIONS>
10  12  8
11  13  8
12  14  8
13  14  8
9  10  8
9  11  8

$$$$
9015
  -OEChem-02201912152D

 17 17  0     0  0  0  0  0  0999 V2000
    2.8660    1.9050    0.0000 O   0  0  0  0  0  0  0  0  0  0  0  0
    2.8660   -2.0950    0.0000 O   0  0  0  0  0  0  0  0  0  0  0  0
    2.8660    0.9050    0.0000 C   0  0  0  0  0  0  0  0  0  0  0  0
    2.0000    0.4050    0.0000 C   0  0  0  0  0  0  0  0  0  0  0  0
    3.7320    0.4050    0.0000 C   0  0  0  0  0  0  0  0  0  0  0  0
    2.8660   -1.0950    0.0000 C   0  0  0  0  0  0  0  0  0  0  0  0
    2.0000   -0.5950    0.0000 C   0  0  0  0  0  0  0  0  0  0  0  0
    3.7320   -0.5950    0.0000 C   0  0  0  0  0  0  0  0  0  0  0  0
    3.7320    2.4050    0.0000 C   0  0  0  0  0  0  0  0  0  0  0  0
    1.4631    0.7150    0.0000 H   0  0  0  0  0  0  0  0  0  0  0  0
    4.2690    0.7150    0.0000 H   0  0  0  0  0  0  0  0  0  0  0  0
    1.4631   -0.9050    0.0000 H   0  0  0  0  0  0  0  0  0  0  0  0
    4.2690   -0.9050    0.0000 H   0  0  0  0  0  0  0  0  0  0  0  0
    4.0420    1.8681    0.0000 H   0  0  0  0  0  0  0  0  0  0  0  0
    4.2690    2.7150    0.0000 H   0  0  0  0  0  0  0  0  0  0  0  0
    3.4220    2.9419    0.0000 H   0  0  0  0  0  0  0  0  0  0  0  0
    2.3291   -2.4050    0.0000 H   0  0  0  0  0  0  0  0  0  0  0  0
  1  3  1  0  0  0  0
  1  9  1  0  0  0  0
  2  6  1  0  0  0  0
  2 17  1  0  0  0  0
  3  4  2  0  0  0  0
  3  5  1  0  0  0  0
  4  7  1  0  0  0  0
  4 10  1  0  0  0  0
  5  8  2  0  0  0  0
  5 11  1  0  0  0  0
  6  7  2  0  0  0  0
  6  8  1  0  0  0  0
  7 12  1  0  0  0  0
  8 13  1  0  0  0  0
  9 14  1  0  0  0  0
  9 15  1  0  0  0  0
  9 16  1  0  0  0  0
M  END
> <PUBCHEM_COMPOUND_CID>
9015

> <PUBCHEM_COMPOUND_CANONICALIZED>
1

> <PUBCHEM_CACTVS_COMPLEXITY>
75

> <PUBCHEM_CACTVS_HBOND_ACCEPTOR>
2

> <PUBCHEM_CACTVS_HBOND_DONOR>
1

> <PUBCHEM_CACTVS_ROTATABLE_BOND>
1

> <PUBCHEM_CACTVS_SUBSKEYS>
AAADccBgMAAAAAAAAAAAAAAAAAAAAAAAAAAwAAAAAAAAAAABAAAAGgAACAAACASAkAIyBoAABgCAACBCAAACCAAgIAAIiAAGCIgMJiKGMRqAcCAkwBEIuAfAQAAAAQAAAAAAAAACAAAAAAAAAAAAAAAAAA==

> <PUBCHEM_IUPAC_OPENEYE_NAME>
4-methoxyphenol

> <PUBCHEM_IUPAC_CAS_NAME>
4-methoxyphenol

> <PUBCHEM_IUPAC_NAME>
4-methoxyphenol

> <PUBCHEM_IUPAC_SYSTEMATIC_NAME>
4-methoxyphenol

> <PUBCHEM_IUPAC_TRADITIONAL_NAME>
4-methoxyphenol

> <PUBCHEM_IUPAC_INCHI>
InChI=1S/C7H8O2/c1-9-7-4-2-6(8)3-5-7/h2-5,8H,1H3

> <PUBCHEM_IUPAC_INCHIKEY>
NWVVVBRKAWDGAB-UHFFFAOYSA-N

> <PUBCHEM_XLOGP3>
1.3

> <PUBCHEM_EXACT_MASS>
124.052

> <PUBCHEM_MOLECULAR_FORMULA>
C7H8O2

> <PUBCHEM_MOLECULAR_WEIGHT>
124.139

> <PUBCHEM_OPENEYE_CAN_SMILES>
COC1=CC=C(C=C1)O

> <PUBCHEM_OPENEYE_ISO_SMILES>
COC1=CC=C(C=C1)O

> <PUBCHEM_CACTVS_TPSA>
29.5

> <PUBCHEM_MONOISOTOPIC_WEIGHT>
124.052

> <PUBCHEM_TOTAL_CHARGE>
0

> <PUBCHEM_HEAVY_ATOM_COUNT>
9

> <PUBCHEM_ATOM_DEF_STEREO_COUNT>
0

> <PUBCHEM_ATOM_UDEF_STEREO_COUNT>
0

> <PUBCHEM_BOND_DEF_STEREO_COUNT>
0

> <PUBCHEM_BOND_UDEF_STEREO_COUNT>
0

> <PUBCHEM_ISOTOPIC_ATOM_COUNT>
0

> <PUBCHEM_COMPONENT_COUNT>
1

> <PUBCHEM_CACTVS_TAUTO_COUNT>
-1

> <PUBCHEM_COORDINATE_TYPE>
1
5
255

> <PUBCHEM_BONDANNOTATIONS>
3  4  8
3  5  8
4  7  8
5  8  8
6  7  8
6  8  8

$$$$
7559
  -OEChem-02201912152D

 21 21  0     0  0  0  0  0  0999 V2000
    3.7320    2.0000    0.0000 O   0  0  0  0  0  0  0  0  0  0  0  0
    4.5981    0.5000    0.0000 O   0  0  0  0  0  0  0  0  0  0  0  0
    2.8660   -0.5000    0.0000 C   0  0  0  0  0  0  0  0  0  0  0  0
    2.8660    0.5000    0.0000 C   0  0  0  0  0  0  0  0  0  0  0  0
    3.7320   -1.0000    0.0000 C   0  0  0  0  0  0  0  0  0  0  0  0
    2.0000   -1.0000    0.0000 C   0  0  0  0  0  0  0  0  0  0  0  0
    3.7320    1.0000    0.0000 C   0  0  0  0  0  0  0  0  0  0  0  0
    3.7320   -2.0000    0.0000 C   0  0  0  0  0  0  0  0  0  0  0  0
    2.0000   -2.0000    0.0000 C   0  0  0  0  0  0  0  0  0  0  0  0
    2.8660   -2.5000    0.0000 C   0  0  0  0  0  0  0  0  0  0  0  0
    4.5981    2.5000    0.0000 C   0  0  0  0  0  0  0  0  0  0  0  0
    2.6540    1.0826    0.0000 H   0  0  0  0  0  0  0  0  0  0  0  0
    2.2554    0.3923    0.0000 H   0  0  0  0  0  0  0  0  0  0  0  0
    4.2690   -0.6900    0.0000 H   0  0  0  0  0  0  0  0  0  0  0  0
    1.4631   -0.6900    0.0000 H   0  0  0  0  0  0  0  0  0  0  0  0
    4.2690   -2.3100    0.0000 H   0  0  0  0  0  0  0  0  0  0  0  0
    1.4631   -2.3100    0.0000 H   0  0  0  0  0  0  0  0  0  0  0  0
    2.8660   -3.1200    0.0000 H   0  0  0  0  0  0  0  0  0  0  0  0
    4.9081    1.9631    0.0000 H   0  0  0  0  0  0  0  0  0  0  0  0
    5.1350    2.8100    0.0000 H   0  0  0  0  0  0  0  0  0  0  0  0
    4.2881    3.0369    0.0000 H   0  0  0  0  0  0  0  0  0  0  0  0
  1  7  1  0  0  0  0
  1 11  1  0  0  0  0
  2  7  2  0  0  0  0
  3  4  1  0  0  0  0
  3  5  2  0  0  0  0
  3  6  1  0  0  0  0
  4  7  1  0  0  0  0
  4 12  1  0  0  0  0
  4 13  1  0  0  0  0
  5  8  1  0  0  0  0
  5 14  1  0  0  0  0
  6  9  2  0  0  0  0
  6 15  1  0  0  0  0
  8 10  2  0  0  0  0
  8 16  1  0  0  0  0
  9 10  1  0  0  0  0
  9 17  1  0  0  0  0
 10 18  1  0  0  0  0
 11 19  1  0  0  0  0
 11 20  1  0  0  0  0
 11 21  1  0  0  0  0
M  END
> <PUBCHEM_COMPOUND_CID>
7559

> <PUBCHEM_COMPOUND_CANONICALIZED>
1

> <PUBCHEM_CACTVS_COMPLEXITY>
126

> <PUBCHEM_CACTVS_HBOND_ACCEPTOR>
2

> <PUBCHEM_CACTVS_HBOND_DONOR>
0

> <PUBCHEM_CACTVS_ROTATABLE_BOND>
3

> <PUBCHEM_CACTVS_SUBSKEYS>
AAADccBwMAAAAAAAAAAAAAAAAAAAAAAAAAAwAAAAAAAAAAABAAAAGgAAAAAADACAmAIyCIAABACIAiDSCAACAAAgAAAIiAEAAIgIIDKAFRCAIAAkwAEIiAeIyKCOAAAAAAAAAAAAAAAAAAAAAAAAAAAAAA==

> <PUBCHEM_IUPAC_OPENEYE_NAME>
methyl 2-phenylacetate

> <PUBCHEM_IUPAC_CAS_NAME>
2-phenylacetic acid methyl ester

> <PUBCHEM_IUPAC_NAME>
methyl 2-phenylacetate

> <PUBCHEM_IUPAC_SYSTEMATIC_NAME>
methyl 2-phenylethanoate

> <PUBCHEM_IUPAC_TRADITIONAL_NAME>
2-phenylacetic acid methyl ester

> <PUBCHEM_IUPAC_INCHI>
InChI=1S/C9H10O2/c1-11-9(10)7-8-5-3-2-4-6-8/h2-6H,7H2,1H3

> <PUBCHEM_IUPAC_INCHIKEY>
CRZQGDNQQAALAY-UHFFFAOYSA-N

> <PUBCHEM_XLOGP3>
1.8

> <PUBCHEM_EXACT_MASS>
150.068

> <PUBCHEM_MOLECULAR_FORMULA>
C9H10O2

> <PUBCHEM_MOLECULAR_WEIGHT>
150.177

> <PUBCHEM_OPENEYE_CAN_SMILES>
COC(=O)CC1=CC=CC=C1

> <PUBCHEM_OPENEYE_ISO_SMILES>
COC(=O)CC1=CC=CC=C1

> <PUBCHEM_CACTVS_TPSA>
26.3

> <PUBCHEM_MONOISOTOPIC_WEIGHT>
150.068

> <PUBCHEM_TOTAL_CHARGE>
0

> <PUBCHEM_HEAVY_ATOM_COUNT>
11

> <PUBCHEM_ATOM_DEF_STEREO_COUNT>
0

> <PUBCHEM_ATOM_UDEF_STEREO_COUNT>
0

> <PUBCHEM_BOND_DEF_STEREO_COUNT>
0

> <PUBCHEM_BOND_UDEF_STEREO_COUNT>
0

> <PUBCHEM_ISOTOPIC_ATOM_COUNT>
0

> <PUBCHEM_COMPONENT_COUNT>
1

> <PUBCHEM_CACTVS_TAUTO_COUNT>
-1

> <PUBCHEM_COORDINATE_TYPE>
1
5
255

> <PUBCHEM_BONDANNOTATIONS>
3  5  8
3  6  8
5  8  8
6  9  8
8  10  8
9  10  8

$$$$
267569
  -OEChem-02201912152D

 19 19  0     0  0  0  0  0  0999 V2000
    2.0000   -0.2500    0.0000 O   0  0  0  0  0  0  0  0  0  0  0  0
    4.5981    1.2500    0.0000 N   0  0  0  0  0  0  0  0  0  0  0  0
    4.5981    0.2500    0.0000 C   0  0  0  0  0  0  0  0  0  0  0  0
    3.7320   -0.2500    0.0000 C   0  0  0  0  0  0  0  0  0  0  0  0
    5.4641   -0.2500    0.0000 C   0  0  0  0  0  0  0  0  0  0  0  0
    3.7320   -1.2500    0.0000 C   0  0  0  0  0  0  0  0  0  0  0  0
    5.4641   -1.2500    0.0000 C   0  0  0  0  0  0  0  0  0  0  0  0
    4.5981   -1.7500    0.0000 C   0  0  0  0  0  0  0  0  0  0  0  0
    5.4641    1.7500    0.0000 C   0  0  0  0  0  0  0  0  0  0  0  0
    2.8660    0.2500    0.0000 C   0  0  0  0  0  0  0  0  0  0  0  0
    6.0010    0.0600    0.0000 H   0  0  0  0  0  0  0  0  0  0  0  0
    4.0611    1.5600    0.0000 H   0  0  0  0  0  0  0  0  0  0  0  0
    3.1951   -1.5600    0.0000 H   0  0  0  0  0  0  0  0  0  0  0  0
    6.0010   -1.5600    0.0000 H   0  0  0  0  0  0  0  0  0  0  0  0
    4.5981   -2.3700    0.0000 H   0  0  0  0  0  0  0  0  0  0  0  0
    5.7741    1.2131    0.0000 H   0  0  0  0  0  0  0  0  0  0  0  0
    6.0010    2.0600    0.0000 H   0  0  0  0  0  0  0  0  0  0  0  0
    5.1541    2.2869    0.0000 H   0  0  0  0  0  0  0  0  0  0  0  0
    2.8660    0.8700    0.0000 H   0  0  0  0  0  0  0  0  0  0  0  0
  1 10  2  0  0  0  0
  2  3  1  0  0  0  0
  2  9  1  0  0  0  0
  2 12  1  0  0  0  0
  3  4  1  0  0  0  0
  3  5  2  0  0  0  0
  4  6  2  0  0  0  0
  4 10  1  0  0  0  0
  5  7  1  0  0  0  0
  5 11  1  0  0  0  0
  6  8  1  0  0  0  0
  6 13  1  0  0  0  0
  7  8  2  0  0  0  0
  7 14  1  0  0  0  0
  8 15  1  0  0  0  0
  9 16  1  0  0  0  0
  9 17  1  0  0  0  0
  9 18  1  0  0  0  0
 10 19  1  0  0  0  0
M  END
> <PUBCHEM_COMPOUND_CID>
267569

> <PUBCHEM_COMPOUND_CANONICALIZED>
1

> <PUBCHEM_CACTVS_COMPLEXITY>
114

> <PUBCHEM_CACTVS_HBOND_ACCEPTOR>
2

> <PUBCHEM_CACTVS_HBOND_DONOR>
1

> <PUBCHEM_CACTVS_ROTATABLE_BOND>
2

> <PUBCHEM_CACTVS_SUBSKEYS>
AAADccByIAAAAAAAAAAAAAAAAAAAAAAAAAAwAAAAAAAAAAABAAAAHgAQAAAADAihmAYywILAAACIAixSwACCAAAlAgAIiIEIZMgIIDrAlZGEIYhgkABIyccYiACOAAAAAAACAAAAAAAAAAQAAAAAAAAAAA==

> <PUBCHEM_IUPAC_OPENEYE_NAME>
2-(methylamino)benzaldehyde

> <PUBCHEM_IUPAC_CAS_NAME>
2-(methylamino)benzaldehyde

> <PUBCHEM_IUPAC_NAME>
2-(methylamino)benzaldehyde

> <PUBCHEM_IUPAC_SYSTEMATIC_NAME>
2-(methylamino)benzaldehyde

> <PUBCHEM_IUPAC_TRADITIONAL_NAME>
2-(methylamino)benzaldehyde

> <PUBCHEM_IUPAC_INCHI>
InChI=1S/C8H9NO/c1-9-8-5-3-2-4-7(8)6-10/h2-6,9H,1H3

> <PUBCHEM_IUPAC_INCHIKEY>
LIZGLUQDMOJDMM-UHFFFAOYSA-N

> <PUBCHEM_XLOGP3_AA>
1.9

> <PUBCHEM_EXACT_MASS>
135.068

> <PUBCHEM_MOLECULAR_FORMULA>
C8H9NO

> <PUBCHEM_MOLECULAR_WEIGHT>
135.166

> <PUBCHEM_OPENEYE_CAN_SMILES>
CNC1=CC=CC=C1C=O

> <PUBCHEM_OPENEYE_ISO_SMILES>
CNC1=CC=CC=C1C=O

> <PUBCHEM_CACTVS_TPSA>
29.1

> <PUBCHEM_MONOISOTOPIC_WEIGHT>
135.068

> <PUBCHEM_TOTAL_CHARGE>
0

> <PUBCHEM_HEAVY_ATOM_COUNT>
10

> <PUBCHEM_ATOM_DEF_STEREO_COUNT>
0

> <PUBCHEM_ATOM_UDEF_STEREO_COUNT>
0

> <PUBCHEM_BOND_DEF_STEREO_COUNT>
0

> <PUBCHEM_BOND_UDEF_STEREO_COUNT>
0

> <PUBCHEM_ISOTOPIC_ATOM_COUNT>
0

> <PUBCHEM_COMPONENT_COUNT>
1

> <PUBCHEM_CACTVS_TAUTO_COUNT>
-1

> <PUBCHEM_COORDINATE_TYPE>
1
5
255

> <PUBCHEM_BONDANNOTATIONS>
3  4  8
3  5  8
4  6  8
5  7  8
6  8  8
7  8  8

$$$$
7150
  -OEChem-02201912152D

 18 18  0     0  0  0  0  0  0999 V2000
    3.7320    1.2500    0.0000 O   0  0  0  0  0  0  0  0  0  0  0  0
    2.0000    1.2500    0.0000 O   0  0  0  0  0  0  0  0  0  0  0  0
    2.8660   -0.2500    0.0000 C   0  0  0  0  0  0  0  0  0  0  0  0
    3.7320   -0.7500    0.0000 C   0  0  0  0  0  0  0  0  0  0  0  0
    2.0000   -0.7500    0.0000 C   0  0  0  0  0  0  0  0  0  0  0  0
    3.7320   -1.7500    0.0000 C   0  0  0  0  0  0  0  0  0  0  0  0
    2.0000   -1.7500    0.0000 C   0  0  0  0  0  0  0  0  0  0  0  0
    2.8660   -2.2500    0.0000 C   0  0  0  0  0  0  0  0  0  0  0  0
    2.8660    0.7500    0.0000 C   0  0  0  0  0  0  0  0  0  0  0  0
    3.7320    2.2500    0.0000 C   0  0  0  0  0  0  0  0  0  0  0  0
    4.2690   -0.4400    0.0000 H   0  0  0  0  0  0  0  0  0  0  0  0
    1.4631   -0.4400    0.0000 H   0  0  0  0  0  0  0  0  0  0  0  0
    4.2690   -2.0600    0.0000 H   0  0  0  0  0  0  0  0  0  0  0  0
    1.4631   -2.0600    0.0000 H   0  0  0  0  0  0  0  0  0  0  0  0
    2.8660   -2.8700    0.0000 H   0  0  0  0  0  0  0  0  0  0  0  0
    4.3520    2.2500    0.0000 H   0  0  0  0  0  0  0  0  0  0  0  0
    3.7320    2.8700    0.0000 H   0  0  0  0  0  0  0  0  0  0  0  0
    3.1120    2.2500    0.0000 H   0  0  0  0  0  0  0  0  0  0  0  0
  1  9  1  0  0  0  0
  1 10  1  0  0  0  0
  2  9  2  0  0  0  0
  3  4  2  0  0  0  0
  3  5  1  0  0  0  0
  3  9  1  0  0  0  0
  4  6  1  0  0  0  0
  4 11  1  0  0  0  0
  5  7  2  0  0  0  0
  5 12  1  0  0  0  0
  6  8  2  0  0  0  0
  6 13  1  0  0  0  0
  7  8  1  0  0  0  0
  7 14  1  0  0  0  0
  8 15  1  0  0  0  0
 10 16  1  0  0  0  0
 10 17  1  0  0  0  0
 10 18  1  0  0  0  0
M  END
> <PUBCHEM_COMPOUND_CID>
7150

> <PUBCHEM_COMPOUND_CANONICALIZED>
1

> <PUBCHEM_CACTVS_COMPLEXITY>
114

> <PUBCHEM_CACTVS_HBOND_ACCEPTOR>
2

> <PUBCHEM_CACTVS_HBOND_DONOR>
0

> <PUBCHEM_CACTVS_ROTATABLE_BOND>
2

> <PUBCHEM_CACTVS_SUBSKEYS>
AAADccBwMAAAAAAAAAAAAAAAAAAAAAAAAAAwAAAAAAAAAAABAAAAGgAAAAAADACAmAIyCIAABACIAiDSCAACAAAkAAAIiAEACMgIJjKANRiAMQAkwAEIqYeIyCCOAAAAAAAAAAAAAAAAAAAAAAAAAAAAAA==

> <PUBCHEM_IUPAC_OPENEYE_NAME>
methyl benzoate

> <PUBCHEM_IUPAC_CAS_NAME>
benzoic acid methyl ester

> <PUBCHEM_IUPAC_NAME>
methyl benzoate

> <PUBCHEM_IUPAC_SYSTEMATIC_NAME>
methyl benzoate

> <PUBCHEM_IUPAC_TRADITIONAL_NAME>
benzoic acid methyl ester

> <PUBCHEM_IUPAC_INCHI>
InChI=1S/C8H8O2/c1-10-8(9)7-5-3-2-4-6-7/h2-6H,1H3

> <PUBCHEM_IUPAC_INCHIKEY>
QPJVMBTYPHYUOC-UHFFFAOYSA-N

> <PUBCHEM_XLOGP3>
2.1

> <PUBCHEM_EXACT_MASS>
136.052

> <PUBCHEM_MOLECULAR_FORMULA>
C8H8O2

> <PUBCHEM_MOLECULAR_WEIGHT>
136.15

> <PUBCHEM_OPENEYE_CAN_SMILES>
COC(=O)C1=CC=CC=C1

> <PUBCHEM_OPENEYE_ISO_SMILES>
COC(=O)C1=CC=CC=C1

> <PUBCHEM_CACTVS_TPSA>
26.3

> <PUBCHEM_MONOISOTOPIC_WEIGHT>
136.052

> <PUBCHEM_TOTAL_CHARGE>
0

> <PUBCHEM_HEAVY_ATOM_COUNT>
10

> <PUBCHEM_ATOM_DEF_STEREO_COUNT>
0

> <PUBCHEM_ATOM_UDEF_STEREO_COUNT>
0

> <PUBCHEM_BOND_DEF_STEREO_COUNT>
0

> <PUBCHEM_BOND_UDEF_STEREO_COUNT>
0

> <PUBCHEM_ISOTOPIC_ATOM_COUNT>
0

> <PUBCHEM_COMPONENT_COUNT>
1

> <PUBCHEM_CACTVS_TAUTO_COUNT>
-1

> <PUBCHEM_COORDINATE_TYPE>
1
5
255

> <PUBCHEM_BONDANNOTATIONS>
3  4  8
3  5  8
4  6  8
5  7  8
6  8  8
7  8  8

$$$$
637520
  -OEChem-02201912152D

 22 22  0     0  0  0  0  0  0999 V2000
    4.5981    2.0000    0.0000 O   0  0  0  0  0  0  0  0  0  0  0  0
    2.8660    2.0000    0.0000 O   0  0  0  0  0  0  0  0  0  0  0  0
    2.8660   -1.0000    0.0000 C   0  0  0  0  0  0  0  0  0  0  0  0
    3.7320   -1.5000    0.0000 C   0  0  0  0  0  0  0  0  0  0  0  0
    2.0000   -1.5000    0.0000 C   0  0  0  0  0  0  0  0  0  0  0  0
    2.8660    0.0000    0.0000 C   0  0  0  0  0  0  0  0  0  0  0  0
    3.7320   -2.5000    0.0000 C   0  0  0  0  0  0  0  0  0  0  0  0
    2.0000   -2.5000    0.0000 C   0  0  0  0  0  0  0  0  0  0  0  0
    2.8660   -3.0000    0.0000 C   0  0  0  0  0  0  0  0  0  0  0  0
    3.7320    0.5000    0.0000 C   0  0  0  0  0  0  0  0  0  0  0  0
    3.7320    1.5000    0.0000 C   0  0  0  0  0  0  0  0  0  0  0  0
    4.5981    3.0000    0.0000 C   0  0  0  0  0  0  0  0  0  0  0  0
    4.2690   -1.1900    0.0000 H   0  0  0  0  0  0  0  0  0  0  0  0
    1.4631   -1.1900    0.0000 H   0  0  0  0  0  0  0  0  0  0  0  0
    2.3291    0.3100    0.0000 H   0  0  0  0  0  0  0  0  0  0  0  0
    4.2690   -2.8100    0.0000 H   0  0  0  0  0  0  0  0  0  0  0  0
    1.4631   -2.8100    0.0000 H   0  0  0  0  0  0  0  0  0  0  0  0
    2.8660   -3.6200    0.0000 H   0  0  0  0  0  0  0  0  0  0  0  0
    4.2690    0.1900    0.0000 H   0  0  0  0  0  0  0  0  0  0  0  0
    5.2181    3.0000    0.0000 H   0  0  0  0  0  0  0  0  0  0  0  0
    4.5981    3.6200    0.0000 H   0  0  0  0  0  0  0  0  0  0  0  0
    3.9781    3.0000    0.0000 H   0  0  0  0  0  0  0  0  0  0  0  0
  1 11  1  0  0  0  0
  1 12  1  0  0  0  0
  2 11  2  0  0  0  0
  3  4  2  0  0  0  0
  3  5  1  0  0  0  0
  3  6  1  0  0  0  0
  4  7  1  0  0  0  0
  4 13  1  0  0  0  0
  5  8  2  0  0  0  0
  5 14  1  0  0  0  0
  6 10  2  0  0  0  0
  6 15  1  0  0  0  0
  7  9  2  0  0  0  0
  7 16  1  0  0  0  0
  8  9  1  0  0  0  0
  8 17  1  0  0  0  0
  9 18  1  0  0  0  0
 10 11  1  0  0  0  0
 10 19  1  0  0  0  0
 12 20  1  0  0  0  0
 12 21  1  0  0  0  0
 12 22  1  0  0  0  0
M  END
> <PUBCHEM_COMPOUND_CID>
637520

> <PUBCHEM_COMPOUND_CANONICALIZED>
1

> <PUBCHEM_CACTVS_COMPLEXITY>
167

> <PUBCHEM_CACTVS_HBOND_ACCEPTOR>
2

> <PUBCHEM_CACTVS_HBOND_DONOR>
0

> <PUBCHEM_CACTVS_ROTATABLE_BOND>
3

> <PUBCHEM_CACTVS_SUBSKEYS>
AAADccBwMAAAAAAAAAAAAAAAAAAAAAAAAAAwAAAAAAAAAAABAAAAGgAAAAAADACAmAIyCIAABACIAiDSCAACAAAgAAAIiAAAAMgIJCKAMRCAMAAggAAIqYcAgAAOAAAAAAAAAAAAAAAAAAAAAAAAAAAAAA==

> <PUBCHEM_IUPAC_OPENEYE_NAME>
methyl (~{E})-3-phenylprop-2-enoate

> <PUBCHEM_IUPAC_CAS_NAME>
(~{E})-3-phenyl-2-propenoic acid methyl ester

> <PUBCHEM_IUPAC_NAME>
methyl (~{E})-3-phenylprop-2-enoate

> <PUBCHEM_IUPAC_SYSTEMATIC_NAME>
methyl (~{E})-3-phenylprop-2-enoate

> <PUBCHEM_IUPAC_TRADITIONAL_NAME>
(~{E})-3-phenylacrylic acid methyl ester

> <PUBCHEM_IUPAC_INCHI>
InChI=1S/C10H10O2/c1-12-10(11)8-7-9-5-3-2-4-6-9/h2-8H,1H3/b8-7+

> <PUBCHEM_IUPAC_INCHIKEY>
CCRCUPLGCSFEDV-BQYQJAHWSA-N

> <PUBCHEM_XLOGP3>
2.6

> <PUBCHEM_EXACT_MASS>
162.068

> <PUBCHEM_MOLECULAR_FORMULA>
C10H10O2

> <PUBCHEM_MOLECULAR_WEIGHT>
162.188

> <PUBCHEM_OPENEYE_CAN_SMILES>
COC(=O)C=CC1=CC=CC=C1

> <PUBCHEM_OPENEYE_ISO_SMILES>
COC(=O)/C=C/C1=CC=CC=C1

> <PUBCHEM_CACTVS_TPSA>
26.3

> <PUBCHEM_MONOISOTOPIC_WEIGHT>
162.068

> <PUBCHEM_TOTAL_CHARGE>
0

> <PUBCHEM_HEAVY_ATOM_COUNT>
12

> <PUBCHEM_ATOM_DEF_STEREO_COUNT>
0

> <PUBCHEM_ATOM_UDEF_STEREO_COUNT>
0

> <PUBCHEM_BOND_DEF_STEREO_COUNT>
1

> <PUBCHEM_BOND_UDEF_STEREO_COUNT>
0

> <PUBCHEM_ISOTOPIC_ATOM_COUNT>
0

> <PUBCHEM_COMPONENT_COUNT>
1

> <PUBCHEM_CACTVS_TAUTO_COUNT>
-1

> <PUBCHEM_COORDINATE_TYPE>
1
5
255

> <PUBCHEM_BONDANNOTATIONS>
3  4  8
3  5  8
4  7  8
5  8  8
7  9  8
8  9  8

$$$$
4133
  -OEChem-02201912152D

 19 19  0     0  0  0  0  0  0999 V2000
    5.1350    1.2500    0.0000 O   0  0  0  0  0  0  0  0  0  0  0  0
    2.5369   -0.2500    0.0000 O   0  0  0  0  0  0  0  0  0  0  0  0
    3.4030    1.2500    0.0000 O   0  0  0  0  0  0  0  0  0  0  0  0
    4.2690   -0.2500    0.0000 C   0  0  0  0  0  0  0  0  0  0  0  0
    3.4030   -0.7500    0.0000 C   0  0  0  0  0  0  0  0  0  0  0  0
    5.1350   -0.7500    0.0000 C   0  0  0  0  0  0  0  0  0  0  0  0
    3.4030   -1.7500    0.0000 C   0  0  0  0  0  0  0  0  0  0  0  0
    5.1350   -1.7500    0.0000 C   0  0  0  0  0  0  0  0  0  0  0  0
    4.2690   -2.2500    0.0000 C   0  0  0  0  0  0  0  0  0  0  0  0
    4.2690    0.7500    0.0000 C   0  0  0  0  0  0  0  0  0  0  0  0
    5.1350    2.2500    0.0000 C   0  0  0  0  0  0  0  0  0  0  0  0
    5.6720   -0.4400    0.0000 H   0  0  0  0  0  0  0  0  0  0  0  0
    2.8660   -2.0600    0.0000 H   0  0  0  0  0  0  0  0  0  0  0  0
    5.6720   -2.0600    0.0000 H   0  0  0  0  0  0  0  0  0  0  0  0
    4.2690   -2.8700    0.0000 H   0  0  0  0  0  0  0  0  0  0  0  0
    2.0000   -0.5600    0.0000 H   0  0  0  0  0  0  0  0  0  0  0  0
    5.7550    2.2500    0.0000 H   0  0  0  0  0  0  0  0  0  0  0  0
    5.1350    2.8700    0.0000 H   0  0  0  0  0  0  0  0  0  0  0  0
    4.5150    2.2500    0.0000 H   0  0  0  0  0  0  0  0  0  0  0  0
  1 10  1  0  0  0  0
  1 11  1  0  0  0  0
  2  5  1  0  0  0  0
  2 16  1  0  0  0  0
  3 10  2  0  0  0  0
  4  5  1  0  0  0  0
  4  6  2  0  0  0  0
  4 10  1  0  0  0  0
  5  7  2  0  0  0  0
  6  8  1  0  0  0  0
  6 12  1  0  0  0  0
  7  9  1  0  0  0  0
  7 13  1  0  0  0  0
  8  9  2  0  0  0  0
  8 14  1  0  0  0  0
  9 15  1  0  0  0  0
 11 17  1  0  0  0  0
 11 18  1  0  0  0  0
 11 19  1  0  0  0  0
M  END
> <PUBCHEM_COMPOUND_CID>
4133

> <PUBCHEM_COMPOUND_CANONICALIZED>
1

> <PUBCHEM_CACTVS_COMPLEXITY>
144

> <PUBCHEM_CACTVS_HBOND_ACCEPTOR>
3

> <PUBCHEM_CACTVS_HBOND_DONOR>
1

> <PUBCHEM_CACTVS_ROTATABLE_BOND>
2

> <PUBCHEM_CACTVS_SUBSKEYS>
AAADccBwMAAAAAAAAAAAAAAAAAAAAAAAAAAwAAAAAAAAAAABAAAAGgAACAAADASAmAIyDoAABgCIAiDSCAACAAAkIAAIiAEGCMgIJzaCNRqAcUAl4BEIuYeIyCCOAAAAAAAIAAAAAAAAABAAAAAAAAAAAA==

> <PUBCHEM_IUPAC_OPENEYE_NAME>
methyl 2-hydroxybenzoate

> <PUBCHEM_IUPAC_CAS_NAME>
2-hydroxybenzoic acid methyl ester

> <PUBCHEM_IUPAC_NAME>
methyl 2-hydroxybenzoate

> <PUBCHEM_IUPAC_SYSTEMATIC_NAME>
methyl 2-oxidanylbenzoate

> <PUBCHEM_IUPAC_TRADITIONAL_NAME>
2-hydroxybenzoic acid methyl ester

> <PUBCHEM_IUPAC_INCHI>
InChI=1S/C8H8O3/c1-11-8(10)6-4-2-3-5-7(6)9/h2-5,9H,1H3

> <PUBCHEM_IUPAC_INCHIKEY>
OSWPMRLSEDHDFF-UHFFFAOYSA-N

> <PUBCHEM_XLOGP3>
2.3

> <PUBCHEM_EXACT_MASS>
152.047

> <PUBCHEM_MOLECULAR_FORMULA>
C8H8O3

> <PUBCHEM_MOLECULAR_WEIGHT>
152.149

> <PUBCHEM_OPENEYE_CAN_SMILES>
COC(=O)C1=CC=CC=C1O

> <PUBCHEM_OPENEYE_ISO_SMILES>
COC(=O)C1=CC=CC=C1O

> <PUBCHEM_CACTVS_TPSA>
46.5

> <PUBCHEM_MONOISOTOPIC_WEIGHT>
152.047

> <PUBCHEM_TOTAL_CHARGE>
0

> <PUBCHEM_HEAVY_ATOM_COUNT>
11

> <PUBCHEM_ATOM_DEF_STEREO_COUNT>
0

> <PUBCHEM_ATOM_UDEF_STEREO_COUNT>
0

> <PUBCHEM_BOND_DEF_STEREO_COUNT>
0

> <PUBCHEM_BOND_UDEF_STEREO_COUNT>
0

> <PUBCHEM_ISOTOPIC_ATOM_COUNT>
0

> <PUBCHEM_COMPONENT_COUNT>
1

> <PUBCHEM_CACTVS_TAUTO_COUNT>
4

> <PUBCHEM_COORDINATE_TYPE>
1
5
255

> <PUBCHEM_BONDANNOTATIONS>
4  5  8
4  6  8
5  7  8
6  8  8
7  9  8
8  9  8

$$$$
31244_2
  -OEChem-02201912152D

 18 18  0     0  0  0  0  0  0999 V2000
    2.8660   -2.0000    0.0000 O   0  0  0  0  0  0  0  0  0  0  0  0
    3.7320    2.5000    0.0000 O   0  0  0  0  0  0  0  0  0  0  0  0
    2.8660   -1.0000    0.0000 C   0  0  0  0  0  0  0  0  0  0  0  0
    2.8660    1.0000    0.0000 C   0  0  0  0  0  0  0  0  0  0  0  0
    3.7320   -0.5000    0.0000 C   0  0  0  0  0  0  0  0  0  0  0  0
    2.0000   -0.5000    0.0000 C   0  0  0  0  0  0  0  0  0  0  0  0
    3.7320    0.5000    0.0000 C   0  0  0  0  0  0  0  0  0  0  0  0
    2.0000    0.5000    0.0000 C   0  0  0  0  0  0  0  0  0  0  0  0
    2.8660    2.0000    0.0000 C   0  0  0  0  0  0  0  0  0  0  0  0
    2.0000   -2.5000    0.0000 C   0  0  0  0  0  0  0  0  0  0  0  0
    4.2690   -0.8100    0.0000 H   0  0  0  0  0  0  0  0  0  0  0  0
    1.4631   -0.8100    0.0000 H   0  0  0  0  0  0  0  0  0  0  0  0
    4.2690    0.8100    0.0000 H   0  0  0  0  0  0  0  0  0  0  0  0
    1.4631    0.8100    0.0000 H   0  0  0  0  0  0  0  0  0  0  0  0
    2.3291    2.3100    0.0000 H   0  0  0  0  0  0  0  0  0  0  0  0
    1.6900   -1.9631    0.0000 H   0  0  0  0  0  0  0  0  0  0  0  0
    1.4631   -2.8100    0.0000 H   0  0  0  0  0  0  0  0  0  0  0  0
    2.3100   -3.0369    0.0000 H   0  0  0  0  0  0  0  0  0  0  0  0
  1  3  1  0  0  0  0
  1 10  1  0  0  0  0
  2  9  2  0  0  0  0
  3  5  2  0  0  0  0
  3  6  1  0  0  0  0
  4  7  2  0  0  0  0
  4  8  1  0  0  0  0
  4  9  1  0  0  0  0
  5  7  1  0  0  0  0
  5 11  1  0  0  0  0
  6  8  2  0  0  0  0
  6 12  1  0  0  0  0
  7 13  1  0  0  0  0
  8 14  1  0  0  0  0
  9 15  1  0  0  0  0
 10 16  1  0  0  0  0
 10 17  1  0  0  0  0
 10 18  1  0  0  0  0
M  END
> <PUBCHEM_COMPOUND_CID>
31244

> <PUBCHEM_COMPOUND_CANONICALIZED>
1

> <PUBCHEM_CACTVS_COMPLEXITY>
104

> <PUBCHEM_CACTVS_HBOND_ACCEPTOR>
2

> <PUBCHEM_CACTVS_HBOND_DONOR>
0

> <PUBCHEM_CACTVS_ROTATABLE_BOND>
2

> <PUBCHEM_CACTVS_SUBSKEYS>
AAADccBwMAAAAAAAAAAAAAAAAAAAAAAAAAAwAAAAAAAAAAABAAAAGgAAAAAADASgmAIyBoAABACIAihSgAACCAAkIAAIiAEGCMgMJjKENRqAMSAkwBEIqYeIzADOIAAAAAAAAABAAAAAAAAAAAAAAAAAAA==

> <PUBCHEM_IUPAC_OPENEYE_NAME>
4-methoxybenzaldehyde

> <PUBCHEM_IUPAC_CAS_NAME>
4-methoxybenzaldehyde

> <PUBCHEM_IUPAC_NAME>
4-methoxybenzaldehyde

> <PUBCHEM_IUPAC_SYSTEMATIC_NAME>
4-methoxybenzaldehyde

> <PUBCHEM_IUPAC_TRADITIONAL_NAME>
4-methoxybenzaldehyde

> <PUBCHEM_IUPAC_INCHI>
InChI=1S/C8H8O2/c1-10-8-4-2-7(6-9)3-5-8/h2-6H,1H3

> <PUBCHEM_IUPAC_INCHIKEY>
ZRSNZINYAWTAHE-UHFFFAOYSA-N

> <PUBCHEM_XLOGP3>
1.8

> <PUBCHEM_EXACT_MASS>
136.052

> <PUBCHEM_MOLECULAR_FORMULA>
C8H8O2

> <PUBCHEM_MOLECULAR_WEIGHT>
136.15

> <PUBCHEM_OPENEYE_CAN_SMILES>
COC1=CC=C(C=C1)C=O

> <PUBCHEM_OPENEYE_ISO_SMILES>
COC1=CC=C(C=C1)C=O

> <PUBCHEM_CACTVS_TPSA>
26.3

> <PUBCHEM_MONOISOTOPIC_WEIGHT>
136.052

> <PUBCHEM_TOTAL_CHARGE>
0

> <PUBCHEM_HEAVY_ATOM_COUNT>
10

> <PUBCHEM_ATOM_DEF_STEREO_COUNT>
0

> <PUBCHEM_ATOM_UDEF_STEREO_COUNT>
0

> <PUBCHEM_BOND_DEF_STEREO_COUNT>
0

> <PUBCHEM_BOND_UDEF_STEREO_COUNT>
0

> <PUBCHEM_ISOTOPIC_ATOM_COUNT>
0

> <PUBCHEM_COMPONENT_COUNT>
1

> <PUBCHEM_CACTVS_TAUTO_COUNT>
-1

> <PUBCHEM_COORDINATE_TYPE>
1
5
255

> <PUBCHEM_BONDANNOTATIONS>
3  5  8
3  6  8
4  7  8
4  8  8
5  7  8
6  8  8

$$$$
7169
  -OEChem-02201912152D

 25 26  0     0  0  0  0  0  0999 V2000
    3.7320    0.2500    0.0000 O   0  0  0  0  0  0  0  0  0  0  0  0
    2.0000    0.2500    0.0000 O   0  0  0  0  0  0  0  0  0  0  0  0
    2.8660   -1.2500    0.0000 C   0  0  0  0  0  0  0  0  0  0  0  0
    3.7320    1.2500    0.0000 C   0  0  0  0  0  0  0  0  0  0  0  0
    3.7320   -1.7500    0.0000 C   0  0  0  0  0  0  0  0  0  0  0  0
    2.0000   -1.7500    0.0000 C   0  0  0  0  0  0  0  0  0  0  0  0
    2.8660   -0.2500    0.0000 C   0  0  0  0  0  0  0  0  0  0  0  0
    2.8660    1.7500    0.0000 C   0  0  0  0  0  0  0  0  0  0  0  0
    4.5981    1.7500    0.0000 C   0  0  0  0  0  0  0  0  0  0  0  0
    3.7320   -2.7500    0.0000 C   0  0  0  0  0  0  0  0  0  0  0  0
    2.0000   -2.7500    0.0000 C   0  0  0  0  0  0  0  0  0  0  0  0
    2.8660   -3.2500    0.0000 C   0  0  0  0  0  0  0  0  0  0  0  0
    2.8660    2.7500    0.0000 C   0  0  0  0  0  0  0  0  0  0  0  0
    4.5981    2.7500    0.0000 C   0  0  0  0  0  0  0  0  0  0  0  0
    3.7320    3.2500    0.0000 C   0  0  0  0  0  0  0  0  0  0  0  0
    4.2690   -1.4400    0.0000 H   0  0  0  0  0  0  0  0  0  0  0  0
    1.4631   -1.4400    0.0000 H   0  0  0  0  0  0  0  0  0  0  0  0
    2.3291    1.4400    0.0000 H   0  0  0  0  0  0  0  0  0  0  0  0
    5.1350    1.4400    0.0000 H   0  0  0  0  0  0  0  0  0  0  0  0
    4.2690   -3.0600    0.0000 H   0  0  0  0  0  0  0  0  0  0  0  0
    1.4631   -3.0600    0.0000 H   0  0  0  0  0  0  0  0  0  0  0  0
    2.8660   -3.8700    0.0000 H   0  0  0  0  0  0  0  0  0  0  0  0
    2.3291    3.0600    0.0000 H   0  0  0  0  0  0  0  0  0  0  0  0
    5.1350    3.0600    0.0000 H   0  0  0  0  0  0  0  0  0  0  0  0
    3.7320    3.8700    0.0000 H   0  0  0  0  0  0  0  0  0  0  0  0
  1  4  1  0  0  0  0
  1  7  1  0  0  0  0
  2  7  2  0  0  0  0
  3  5  2  0  0  0  0
  3  6  1  0  0  0  0
  3  7  1  0  0  0  0
  4  8  2  0  0  0  0
  4  9  1  0  0  0  0
  5 10  1  0  0  0  0
  5 16  1  0  0  0  0
  6 11  2  0  0  0  0
  6 17  1  0  0  0  0
  8 13  1  0  0  0  0
  8 18  1  0  0  0  0
  9 14  2  0  0  0  0
  9 19  1  0  0  0  0
 10 12  2  0  0  0  0
 10 20  1  0  0  0  0
 11 12  1  0  0  0  0
 11 21  1  0  0  0  0
 12 22  1  0  0  0  0
 13 15  2  0  0  0  0
 13 23  1  0  0  0  0
 14 15  1  0  0  0  0
 14 24  1  0  0  0  0
 15 25  1  0  0  0  0
M  END
> <PUBCHEM_COMPOUND_CID>
7169

> <PUBCHEM_COMPOUND_CANONICALIZED>
1

> <PUBCHEM_CACTVS_COMPLEXITY>
201

> <PUBCHEM_CACTVS_HBOND_ACCEPTOR>
2

> <PUBCHEM_CACTVS_HBOND_DONOR>
0

> <PUBCHEM_CACTVS_ROTATABLE_BOND>
3

> <PUBCHEM_CACTVS_SUBSKEYS>
AAADccBwMAAAAAAAAAAAAAAAAAAAAAAAAAAwYAAAAAAAAAABQAAAGgAAAAAADASAmAAwDoAABACIAiDSCAACCAAkIAAIiAEGCMgMJjKENRqCOyCkwBEIqYeIyCCOAAAAAAAAAAAAAAAAAAAAAAAAAAAAAA==

> <PUBCHEM_IUPAC_OPENEYE_NAME>
phenyl benzoate

> <PUBCHEM_IUPAC_CAS_NAME>
benzoic acid phenyl ester

> <PUBCHEM_IUPAC_NAME>
phenyl benzoate

> <PUBCHEM_IUPAC_SYSTEMATIC_NAME>
phenyl benzoate

> <PUBCHEM_IUPAC_TRADITIONAL_NAME>
benzoic acid phenyl ester

> <PUBCHEM_IUPAC_INCHI>
InChI=1S/C13H10O2/c14-13(11-7-3-1-4-8-11)15-12-9-5-2-6-10-12/h1-10H

> <PUBCHEM_IUPAC_INCHIKEY>
FCJSHPDYVMKCHI-UHFFFAOYSA-N

> <PUBCHEM_XLOGP3>
3.6

> <PUBCHEM_EXACT_MASS>
198.068

> <PUBCHEM_MOLECULAR_FORMULA>
C13H10O2

> <PUBCHEM_MOLECULAR_WEIGHT>
198.221

> <PUBCHEM_OPENEYE_CAN_SMILES>
C1=CC=C(C=C1)C(=O)OC2=CC=CC=C2

> <PUBCHEM_OPENEYE_ISO_SMILES>
C1=CC=C(C=C1)C(=O)OC2=CC=CC=C2

> <PUBCHEM_CACTVS_TPSA>
26.3

> <PUBCHEM_MONOISOTOPIC_WEIGHT>
198.068

> <PUBCHEM_TOTAL_CHARGE>
0

> <PUBCHEM_HEAVY_ATOM_COUNT>
15

> <PUBCHEM_ATOM_DEF_STEREO_COUNT>
0

> <PUBCHEM_ATOM_UDEF_STEREO_COUNT>
0

> <PUBCHEM_BOND_DEF_STEREO_COUNT>
0

> <PUBCHEM_BOND_UDEF_STEREO_COUNT>
0

> <PUBCHEM_ISOTOPIC_ATOM_COUNT>
0

> <PUBCHEM_COMPONENT_COUNT>
1

> <PUBCHEM_CACTVS_TAUTO_COUNT>
-1

> <PUBCHEM_COORDINATE_TYPE>
1
5
255

> <PUBCHEM_BONDANNOTATIONS>
10  12  8
11  12  8
13  15  8
14  15  8
3  5  8
3  6  8
4  8  8
4  9  8
5  10  8
6  11  8
8  13  8
9  14  8

$$$$
7043
  -OEChem-02201912152D

 20 20  0     0  0  0  0  0  0999 V2000
    2.8660    0.2500    0.0000 O   0  0  0  0  0  0  0  0  0  0  0  0
    4.5981    1.2500    0.0000 O   0  0  0  0  0  0  0  0  0  0  0  0
    4.5981    0.2500    0.0000 C   0  0  0  0  0  0  0  0  0  0  0  0
    3.7320   -0.2500    0.0000 C   0  0  0  0  0  0  0  0  0  0  0  0
    5.4641   -0.2500    0.0000 C   0  0  0  0  0  0  0  0  0  0  0  0
    3.7320   -1.2500    0.0000 C   0  0  0  0  0  0  0  0  0  0  0  0
    5.4641   -1.2500    0.0000 C   0  0  0  0  0  0  0  0  0  0  0  0
    4.5981   -1.7500    0.0000 C   0  0  0  0  0  0  0  0  0  0  0  0
    2.0000   -0.2500    0.0000 C   0  0  0  0  0  0  0  0  0  0  0  0
    5.4641    1.7500    0.0000 C   0  0  0  0  0  0  0  0  0  0  0  0
    6.0010    0.0600    0.0000 H   0  0  0  0  0  0  0  0  0  0  0  0
    3.1951   -1.5600    0.0000 H   0  0  0  0  0  0  0  0  0  0  0  0
    4.5981   -2.3700    0.0000 H   0  0  0  0  0  0  0  0  0  0  0  0
    6.0010   -1.5600    0.0000 H   0  0  0  0  0  0  0  0  0  0  0  0
    5.7741    1.2131    0.0000 H   0  0  0  0  0  0  0  0  0  0  0  0
    6.0010    2.0600    0.0000 H   0  0  0  0  0  0  0  0  0  0  0  0
    1.6900    0.2869    0.0000 H   0  0  0  0  0  0  0  0  0  0  0  0
    1.4631   -0.5600    0.0000 H   0  0  0  0  0  0  0  0  0  0  0  0
    2.3100   -0.7869    0.0000 H   0  0  0  0  0  0  0  0  0  0  0  0
    5.1541    2.2869    0.0000 H   0  0  0  0  0  0  0  0  0  0  0  0
  1  4  1  0  0  0  0
  1  9  1  0  0  0  0
  2  3  1  0  0  0  0
  2 10  1  0  0  0  0
  3  4  1  0  0  0  0
  3  5  2  0  0  0  0
  4  6  2  0  0  0  0
  5  7  1  0  0  0  0
  5 11  1  0  0  0  0
  6  8  1  0  0  0  0
  6 12  1  0  0  0  0
  7  8  2  0  0  0  0
  7 14  1  0  0  0  0
  8 13  1  0  0  0  0
  9 17  1  0  0  0  0
  9 18  1  0  0  0  0
  9 19  1  0  0  0  0
 10 15  1  0  0  0  0
 10 16  1  0  0  0  0
 10 20  1  0  0  0  0
M  END
> <PUBCHEM_COMPOUND_CID>
7043

> <PUBCHEM_COMPOUND_CANONICALIZED>
1

> <PUBCHEM_CACTVS_COMPLEXITY>
81.3

> <PUBCHEM_CACTVS_HBOND_ACCEPTOR>
2

> <PUBCHEM_CACTVS_HBOND_DONOR>
0

> <PUBCHEM_CACTVS_ROTATABLE_BOND>
2

> <PUBCHEM_CACTVS_SUBSKEYS>
AAADccBwMAAAAAAAAAAAAAAAAAAAAAAAAAAwAAAAAAAAAAABAAAAGgAAAAAACASAkAIyBoAABACAACBCAAACCAAgIAAIiAAGiIgNJiKEMRqAMCIkwBEKqAeAQAAAAAAAAAAAQAAAAAAAAACAAAAAAAAAAA==

> <PUBCHEM_IUPAC_OPENEYE_NAME>
1,2-dimethoxybenzene

> <PUBCHEM_IUPAC_CAS_NAME>
1,2-dimethoxybenzene

> <PUBCHEM_IUPAC_NAME>
1,2-dimethoxybenzene

> <PUBCHEM_IUPAC_SYSTEMATIC_NAME>
1,2-dimethoxybenzene

> <PUBCHEM_IUPAC_TRADITIONAL_NAME>
veratrole

> <PUBCHEM_IUPAC_INCHI>
InChI=1S/C8H10O2/c1-9-7-5-3-4-6-8(7)10-2/h3-6H,1-2H3

> <PUBCHEM_IUPAC_INCHIKEY>
ABDKAPXRBAPSQN-UHFFFAOYSA-N

> <PUBCHEM_XLOGP3>
1.6

> <PUBCHEM_EXACT_MASS>
138.068

> <PUBCHEM_MOLECULAR_FORMULA>
C8H10O2

> <PUBCHEM_MOLECULAR_WEIGHT>
138.166

> <PUBCHEM_OPENEYE_CAN_SMILES>
COC1=CC=CC=C1OC

> <PUBCHEM_OPENEYE_ISO_SMILES>
COC1=CC=CC=C1OC

> <PUBCHEM_CACTVS_TPSA>
18.5

> <PUBCHEM_MONOISOTOPIC_WEIGHT>
138.068

> <PUBCHEM_TOTAL_CHARGE>
0

> <PUBCHEM_HEAVY_ATOM_COUNT>
10

> <PUBCHEM_ATOM_DEF_STEREO_COUNT>
0

> <PUBCHEM_ATOM_UDEF_STEREO_COUNT>
0

> <PUBCHEM_BOND_DEF_STEREO_COUNT>
0

> <PUBCHEM_BOND_UDEF_STEREO_COUNT>
0

> <PUBCHEM_ISOTOPIC_ATOM_COUNT>
0

> <PUBCHEM_COMPONENT_COUNT>
1

> <PUBCHEM_CACTVS_TAUTO_COUNT>
-1

> <PUBCHEM_COORDINATE_TYPE>
1
5
255

> <PUBCHEM_BONDANNOTATIONS>
3  4  8
3  5  8
4  6  8
5  7  8
6  8  8
7  8  8

$$$$
8181
  -OEChem-02201912152D

 53 52  0     0  0  0  0  0  0999 V2000
    2.8660    0.7500    0.0000 O   0  0  0  0  0  0  0  0  0  0  0  0
    3.7320   -0.7500    0.0000 O   0  0  0  0  0  0  0  0  0  0  0  0
   10.6603    0.2500    0.0000 C   0  0  0  0  0  0  0  0  0  0  0  0
    9.7942    0.7500    0.0000 C   0  0  0  0  0  0  0  0  0  0  0  0
   11.5263    0.7500    0.0000 C   0  0  0  0  0  0  0  0  0  0  0  0
    8.9282    0.2500    0.0000 C   0  0  0  0  0  0  0  0  0  0  0  0
   12.3923    0.2500    0.0000 C   0  0  0  0  0  0  0  0  0  0  0  0
    8.0622    0.7500    0.0000 C   0  0  0  0  0  0  0  0  0  0  0  0
   13.2583    0.7500    0.0000 C   0  0  0  0  0  0  0  0  0  0  0  0
    7.1962    0.2500    0.0000 C   0  0  0  0  0  0  0  0  0  0  0  0
   14.1244    0.2500    0.0000 C   0  0  0  0  0  0  0  0  0  0  0  0
    6.3301    0.7500    0.0000 C   0  0  0  0  0  0  0  0  0  0  0  0
   14.9904    0.7500    0.0000 C   0  0  0  0  0  0  0  0  0  0  0  0
    5.4641    0.2500    0.0000 C   0  0  0  0  0  0  0  0  0  0  0  0
   15.8564    0.2500    0.0000 C   0  0  0  0  0  0  0  0  0  0  0  0
    4.5981    0.7500    0.0000 C   0  0  0  0  0  0  0  0  0  0  0  0
   16.7224    0.7500    0.0000 C   0  0  0  0  0  0  0  0  0  0  0  0
    3.7320    0.2500    0.0000 C   0  0  0  0  0  0  0  0  0  0  0  0
    2.0000    0.2500    0.0000 C   0  0  0  0  0  0  0  0  0  0  0  0
   10.2617   -0.2249    0.0000 H   0  0  0  0  0  0  0  0  0  0  0  0
   11.0588   -0.2249    0.0000 H   0  0  0  0  0  0  0  0  0  0  0  0
   10.1928    1.2250    0.0000 H   0  0  0  0  0  0  0  0  0  0  0  0
    9.3957    1.2250    0.0000 H   0  0  0  0  0  0  0  0  0  0  0  0
   11.9248    1.2250    0.0000 H   0  0  0  0  0  0  0  0  0  0  0  0
   11.1278    1.2250    0.0000 H   0  0  0  0  0  0  0  0  0  0  0  0
    8.5297   -0.2249    0.0000 H   0  0  0  0  0  0  0  0  0  0  0  0
    9.3267   -0.2249    0.0000 H   0  0  0  0  0  0  0  0  0  0  0  0
   11.9938   -0.2249    0.0000 H   0  0  0  0  0  0  0  0  0  0  0  0
   12.7908   -0.2249    0.0000 H   0  0  0  0  0  0  0  0  0  0  0  0
    8.4607    1.2250    0.0000 H   0  0  0  0  0  0  0  0  0  0  0  0
    7.6636    1.2250    0.0000 H   0  0  0  0  0  0  0  0  0  0  0  0
   13.6569    1.2250    0.0000 H   0  0  0  0  0  0  0  0  0  0  0  0
   12.8598    1.2250    0.0000 H   0  0  0  0  0  0  0  0  0  0  0  0
    6.7976   -0.2249    0.0000 H   0  0  0  0  0  0  0  0  0  0  0  0
    7.5947   -0.2249    0.0000 H   0  0  0  0  0  0  0  0  0  0  0  0
   13.7258   -0.2249    0.0000 H   0  0  0  0  0  0  0  0  0  0  0  0
   14.5229   -0.2249    0.0000 H   0  0  0  0  0  0  0  0  0  0  0  0
    6.7287    1.2250    0.0000 H   0  0  0  0  0  0  0  0  0  0  0  0
    5.9316    1.2250    0.0000 H   0  0  0  0  0  0  0  0  0  0  0  0
   15.3889    1.2250    0.0000 H   0  0  0  0  0  0  0  0  0  0  0  0
   14.5919    1.2250    0.0000 H   0  0  0  0  0  0  0  0  0  0  0  0
    5.0656   -0.2249    0.0000 H   0  0  0  0  0  0  0  0  0  0  0  0
    5.8626   -0.2249    0.0000 H   0  0  0  0  0  0  0  0  0  0  0  0
   15.4579   -0.2249    0.0000 H   0  0  0  0  0  0  0  0  0  0  0  0
   16.2549   -0.2249    0.0000 H   0  0  0  0  0  0  0  0  0  0  0  0
    4.9966    1.2250    0.0000 H   0  0  0  0  0  0  0  0  0  0  0  0
    4.1996    1.2250    0.0000 H   0  0  0  0  0  0  0  0  0  0  0  0
   17.0324    0.2131    0.0000 H   0  0  0  0  0  0  0  0  0  0  0  0
   17.2594    1.0600    0.0000 H   0  0  0  0  0  0  0  0  0  0  0  0
   16.4124    1.2869    0.0000 H   0  0  0  0  0  0  0  0  0  0  0  0
    1.6900    0.7869    0.0000 H   0  0  0  0  0  0  0  0  0  0  0  0
    1.4631   -0.0600    0.0000 H   0  0  0  0  0  0  0  0  0  0  0  0
    2.3100   -0.2869    0.0000 H   0  0  0  0  0  0  0  0  0  0  0  0
  1 18  1  0  0  0  0
  1 19  1  0  0  0  0
  2 18  2  0  0  0  0
  3  4  1  0  0  0  0
  3  5  1  0  0  0  0
  3 20  1  0  0  0  0
  3 21  1  0  0  0  0
  4  6  1  0  0  0  0
  4 22  1  0  0  0  0
  4 23  1  0  0  0  0
  5  7  1  0  0  0  0
  5 24  1  0  0  0  0
  5 25  1  0  0  0  0
  6  8  1  0  0  0  0
  6 26  1  0  0  0  0
  6 27  1  0  0  0  0
  7  9  1  0  0  0  0
  7 28  1  0  0  0  0
  7 29  1  0  0  0  0
  8 10  1  0  0  0  0
  8 30  1  0  0  0  0
  8 31  1  0  0  0  0
  9 11  1  0  0  0  0
  9 32  1  0  0  0  0
  9 33  1  0  0  0  0
 10 12  1  0  0  0  0
 10 34  1  0  0  0  0
 10 35  1  0  0  0  0
 11 13  1  0  0  0  0
 11 36  1  0  0  0  0
 11 37  1  0  0  0  0
 12 14  1  0  0  0  0
 12 38  1  0  0  0  0
 12 39  1  0  0  0  0
 13 15  1  0  0  0  0
 13 40  1  0  0  0  0
 13 41  1  0  0  0  0
 14 16  1  0  0  0  0
 14 42  1  0  0  0  0
 14 43  1  0  0  0  0
 15 17  1  0  0  0  0
 15 44  1  0  0  0  0
 15 45  1  0  0  0  0
 16 18  1  0  0  0  0
 16 46  1  0  0  0  0
 16 47  1  0  0  0  0
 17 48  1  0  0  0  0
 17 49  1  0  0  0  0
 17 50  1  0  0  0  0
 19 51  1  0  0  0  0
 19 52  1  0  0  0  0
 19 53  1  0  0  0  0
M  END
> <PUBCHEM_COMPOUND_CID>
8181

> <PUBCHEM_COMPOUND_CANONICALIZED>
1

> <PUBCHEM_CACTVS_COMPLEXITY>
190

> <PUBCHEM_CACTVS_HBOND_ACCEPTOR>
2

> <PUBCHEM_CACTVS_HBOND_DONOR>
0

> <PUBCHEM_CACTVS_ROTATABLE_BOND>
15

> <PUBCHEM_CACTVS_SUBSKEYS>
AAADcfB4MAAAAAAAAAAAAAAAAAAAAAAAAAAAAAAAAAAAAAAAAAAAGgAAAAAACACAgAICCAAABAAIAACQCAAAAAAAAAAAAAEAAAAAABIAAAAAAAAEAAAAAAGIyKCAAAAAAAAAAAAAAAAAAAAAAAAAAAAAAA==

> <PUBCHEM_IUPAC_OPENEYE_NAME>
methyl hexadecanoate

> <PUBCHEM_IUPAC_CAS_NAME>
hexadecanoic acid methyl ester

> <PUBCHEM_IUPAC_NAME>
methyl hexadecanoate

> <PUBCHEM_IUPAC_SYSTEMATIC_NAME>
methyl hexadecanoate

> <PUBCHEM_IUPAC_TRADITIONAL_NAME>
palmitic acid methyl ester

> <PUBCHEM_IUPAC_INCHI>
InChI=1S/C17H34O2/c1-3-4-5-6-7-8-9-10-11-12-13-14-15-16-17(18)19-2/h3-16H2,1-2H3

> <PUBCHEM_IUPAC_INCHIKEY>
FLIACVVOZYBSBS-UHFFFAOYSA-N

> <PUBCHEM_XLOGP3>
7.9

> <PUBCHEM_EXACT_MASS>
270.256

> <PUBCHEM_MOLECULAR_FORMULA>
C17H34O2

> <PUBCHEM_MOLECULAR_WEIGHT>
270.457

> <PUBCHEM_OPENEYE_CAN_SMILES>
CCCCCCCCCCCCCCCC(=O)OC

> <PUBCHEM_OPENEYE_ISO_SMILES>
CCCCCCCCCCCCCCCC(=O)OC

> <PUBCHEM_CACTVS_TPSA>
26.3

> <PUBCHEM_MONOISOTOPIC_WEIGHT>
270.256

> <PUBCHEM_TOTAL_CHARGE>
0

> <PUBCHEM_HEAVY_ATOM_COUNT>
19

> <PUBCHEM_ATOM_DEF_STEREO_COUNT>
0

> <PUBCHEM_ATOM_UDEF_STEREO_COUNT>
0

> <PUBCHEM_BOND_DEF_STEREO_COUNT>
0

> <PUBCHEM_BOND_UDEF_STEREO_COUNT>
0

> <PUBCHEM_ISOTOPIC_ATOM_COUNT>
0

> <PUBCHEM_COMPONENT_COUNT>
1

> <PUBCHEM_CACTVS_TAUTO_COUNT>
-1

> <PUBCHEM_COORDINATE_TYPE>
1
5
255

$$$$
8103
  -OEChem-02201912152D

 21 20  0     0  0  0  0  0  0999 V2000
    7.1962    0.2500    0.0000 O   0  0  0  0  0  0  0  0  0  0  0  0
    4.5981   -0.2500    0.0000 C   0  0  0  0  0  0  0  0  0  0  0  0
    3.7320    0.2500    0.0000 C   0  0  0  0  0  0  0  0  0  0  0  0
    5.4641    0.2500    0.0000 C   0  0  0  0  0  0  0  0  0  0  0  0
    2.8660   -0.2500    0.0000 C   0  0  0  0  0  0  0  0  0  0  0  0
    6.3301   -0.2500    0.0000 C   0  0  0  0  0  0  0  0  0  0  0  0
    2.0000    0.2500    0.0000 C   0  0  0  0  0  0  0  0  0  0  0  0
    4.1996   -0.7249    0.0000 H   0  0  0  0  0  0  0  0  0  0  0  0
    4.9966   -0.7249    0.0000 H   0  0  0  0  0  0  0  0  0  0  0  0
    4.1306    0.7249    0.0000 H   0  0  0  0  0  0  0  0  0  0  0  0
    3.3335    0.7249    0.0000 H   0  0  0  0  0  0  0  0  0  0  0  0
    5.8626    0.7249    0.0000 H   0  0  0  0  0  0  0  0  0  0  0  0
    5.0656    0.7249    0.0000 H   0  0  0  0  0  0  0  0  0  0  0  0
    2.4675   -0.7249    0.0000 H   0  0  0  0  0  0  0  0  0  0  0  0
    3.2646   -0.7249    0.0000 H   0  0  0  0  0  0  0  0  0  0  0  0
    5.9316   -0.7249    0.0000 H   0  0  0  0  0  0  0  0  0  0  0  0
    6.7287   -0.7249    0.0000 H   0  0  0  0  0  0  0  0  0  0  0  0
    2.3100    0.7869    0.0000 H   0  0  0  0  0  0  0  0  0  0  0  0
    1.4631    0.5600    0.0000 H   0  0  0  0  0  0  0  0  0  0  0  0
    1.6900   -0.2869    0.0000 H   0  0  0  0  0  0  0  0  0  0  0  0
    7.7331   -0.0600    0.0000 H   0  0  0  0  0  0  0  0  0  0  0  0
  1  6  1  0  0  0  0
  1 21  1  0  0  0  0
  2  3  1  0  0  0  0
  2  4  1  0  0  0  0
  2  8  1  0  0  0  0
  2  9  1  0  0  0  0
  3  5  1  0  0  0  0
  3 10  1  0  0  0  0
  3 11  1  0  0  0  0
  4  6  1  0  0  0  0
  4 12  1  0  0  0  0
  4 13  1  0  0  0  0
  5  7  1  0  0  0  0
  5 14  1  0  0  0  0
  5 15  1  0  0  0  0
  6 16  1  0  0  0  0
  6 17  1  0  0  0  0
  7 18  1  0  0  0  0
  7 19  1  0  0  0  0
  7 20  1  0  0  0  0
M  END
> <PUBCHEM_COMPOUND_CID>
8103

> <PUBCHEM_COMPOUND_CANONICALIZED>
1

> <PUBCHEM_CACTVS_COMPLEXITY>
27.4

> <PUBCHEM_CACTVS_HBOND_ACCEPTOR>
1

> <PUBCHEM_CACTVS_HBOND_DONOR>
1

> <PUBCHEM_CACTVS_ROTATABLE_BOND>
4

> <PUBCHEM_CACTVS_SUBSKEYS>
AAADccBgIAAAAAAAAAAAAAAAAAAAAAAAAAAAAAAAAAAAAAAAAAAAGgAACAAACACggAICAAAAAgAAAAAAAAAAAAAAAAAAAAAAAAAAEAIAAAAAQAAEAAAAAAGAQAAAAAAAAAAAAAAAAAAAAAAAAAAAAAAAAA==

> <PUBCHEM_IUPAC_OPENEYE_NAME>
hexan-1-ol

> <PUBCHEM_IUPAC_CAS_NAME>
1-hexanol

> <PUBCHEM_IUPAC_NAME>
hexan-1-ol

> <PUBCHEM_IUPAC_SYSTEMATIC_NAME>
hexan-1-ol

> <PUBCHEM_IUPAC_TRADITIONAL_NAME>
hexan-1-ol

> <PUBCHEM_IUPAC_INCHI>
InChI=1S/C6H14O/c1-2-3-4-5-6-7/h7H,2-6H2,1H3

> <PUBCHEM_IUPAC_INCHIKEY>
ZSIAUFGUXNUGDI-UHFFFAOYSA-N

> <PUBCHEM_XLOGP3>
2

> <PUBCHEM_EXACT_MASS>
102.104

> <PUBCHEM_MOLECULAR_FORMULA>
C6H14O

> <PUBCHEM_MOLECULAR_WEIGHT>
102.177

> <PUBCHEM_OPENEYE_CAN_SMILES>
CCCCCCO

> <PUBCHEM_OPENEYE_ISO_SMILES>
CCCCCCO

> <PUBCHEM_CACTVS_TPSA>
20.2

> <PUBCHEM_MONOISOTOPIC_WEIGHT>
102.104

> <PUBCHEM_TOTAL_CHARGE>
0

> <PUBCHEM_HEAVY_ATOM_COUNT>
7

> <PUBCHEM_ATOM_DEF_STEREO_COUNT>
0

> <PUBCHEM_ATOM_UDEF_STEREO_COUNT>
0

> <PUBCHEM_BOND_DEF_STEREO_COUNT>
0

> <PUBCHEM_BOND_UDEF_STEREO_COUNT>
0

> <PUBCHEM_ISOTOPIC_ATOM_COUNT>
0

> <PUBCHEM_COMPONENT_COUNT>
1

> <PUBCHEM_CACTVS_TAUTO_COUNT>
-1

> <PUBCHEM_COORDINATE_TYPE>
1
5
255

$$$$
5352557
  -OEChem-02201912152D

 24 23  0     0  0  0  0  0  0999 V2000
    3.7320    0.4400    0.0000 O   0  0  0  0  0  0  0  0  0  0  0  0
    2.8660   -1.0600    0.0000 O   0  0  0  0  0  0  0  0  0  0  0  0
    5.4641    0.4400    0.0000 C   0  0  0  0  0  0  0  0  0  0  0  0
    4.5981   -0.0600    0.0000 C   0  0  0  0  0  0  0  0  0  0  0  0
    6.3301   -0.0600    0.0000 C   0  0  0  0  0  0  0  0  0  0  0  0
    8.0622   -0.0600    0.0000 C   0  0  0  0  0  0  0  0  0  0  0  0
    7.1962    0.4400    0.0000 C   0  0  0  0  0  0  0  0  0  0  0  0
    8.9282    0.4400    0.0000 C   0  0  0  0  0  0  0  0  0  0  0  0
    2.8660   -0.0600    0.0000 C   0  0  0  0  0  0  0  0  0  0  0  0
    2.0000    0.4400    0.0000 C   0  0  0  0  0  0  0  0  0  0  0  0
    5.8626    0.9149    0.0000 H   0  0  0  0  0  0  0  0  0  0  0  0
    5.0656    0.9149    0.0000 H   0  0  0  0  0  0  0  0  0  0  0  0
    4.1996   -0.5349    0.0000 H   0  0  0  0  0  0  0  0  0  0  0  0
    4.9966   -0.5349    0.0000 H   0  0  0  0  0  0  0  0  0  0  0  0
    6.3301   -0.6800    0.0000 H   0  0  0  0  0  0  0  0  0  0  0  0
    7.6636   -0.5349    0.0000 H   0  0  0  0  0  0  0  0  0  0  0  0
    8.4607   -0.5349    0.0000 H   0  0  0  0  0  0  0  0  0  0  0  0
    7.1962    1.0600    0.0000 H   0  0  0  0  0  0  0  0  0  0  0  0
    9.2382   -0.0969    0.0000 H   0  0  0  0  0  0  0  0  0  0  0  0
    9.4651    0.7500    0.0000 H   0  0  0  0  0  0  0  0  0  0  0  0
    8.6182    0.9769    0.0000 H   0  0  0  0  0  0  0  0  0  0  0  0
    2.3100    0.9769    0.0000 H   0  0  0  0  0  0  0  0  0  0  0  0
    1.4631    0.7500    0.0000 H   0  0  0  0  0  0  0  0  0  0  0  0
    1.6900   -0.0969    0.0000 H   0  0  0  0  0  0  0  0  0  0  0  0
  1  4  1  0  0  0  0
  1  9  1  0  0  0  0
  2  9  2  0  0  0  0
  3  4  1  0  0  0  0
  3  5  1  0  0  0  0
  3 11  1  0  0  0  0
  3 12  1  0  0  0  0
  4 13  1  0  0  0  0
  4 14  1  0  0  0  0
  5  7  2  0  0  0  0
  5 15  1  0  0  0  0
  6  7  1  0  0  0  0
  6  8  1  0  0  0  0
  6 16  1  0  0  0  0
  6 17  1  0  0  0  0
  7 18  1  0  0  0  0
  8 19  1  0  0  0  0
  8 20  1  0  0  0  0
  8 21  1  0  0  0  0
  9 10  1  0  0  0  0
 10 22  1  0  0  0  0
 10 23  1  0  0  0  0
 10 24  1  0  0  0  0
M  END
> <PUBCHEM_COMPOUND_CID>
5352557

> <PUBCHEM_COMPOUND_CANONICALIZED>
1

> <PUBCHEM_CACTVS_COMPLEXITY>
116

> <PUBCHEM_CACTVS_HBOND_ACCEPTOR>
2

> <PUBCHEM_CACTVS_HBOND_DONOR>
0

> <PUBCHEM_CACTVS_ROTATABLE_BOND>
5

> <PUBCHEM_CACTVS_SUBSKEYS>
AAADccBwMAAAAAAAAAAAAAAAAAAAAAAAAAAAAAAAAAAAAAAAAAAAGgAAAAAACACggAICCAAABACIACDSCAAAAAAgAAAICAAAAAgAAAAAAQACAAAAQAAIAAIAAAAAAAAAAAAAAAAAAAAAAAAAAAAAAAAAAA==

> <PUBCHEM_IUPAC_OPENEYE_NAME>
[(~{E})-hex-3-enyl] acetate

> <PUBCHEM_IUPAC_CAS_NAME>
acetic acid [(~{E})-hex-3-enyl] ester

> <PUBCHEM_IUPAC_NAME>
[(~{E})-hex-3-enyl] acetate

> <PUBCHEM_IUPAC_SYSTEMATIC_NAME>
[(~{E})-hex-3-enyl] ethanoate

> <PUBCHEM_IUPAC_TRADITIONAL_NAME>
acetic acid [(~{E})-hex-3-enyl] ester

> <PUBCHEM_IUPAC_INCHI>
InChI=1S/C8H14O2/c1-3-4-5-6-7-10-8(2)9/h4-5H,3,6-7H2,1-2H3/b5-4+

> <PUBCHEM_IUPAC_INCHIKEY>
NPFVOOAXDOBMCE-SNAWJCMRSA-N

> <PUBCHEM_XLOGP3_AA>
1.9

> <PUBCHEM_EXACT_MASS>
142.099

> <PUBCHEM_MOLECULAR_FORMULA>
C8H14O2

> <PUBCHEM_MOLECULAR_WEIGHT>
142.198

> <PUBCHEM_OPENEYE_CAN_SMILES>
CCC=CCCOC(=O)C

> <PUBCHEM_OPENEYE_ISO_SMILES>
CC/C=C/CCOC(=O)C

> <PUBCHEM_CACTVS_TPSA>
26.3

> <PUBCHEM_MONOISOTOPIC_WEIGHT>
142.099

> <PUBCHEM_TOTAL_CHARGE>
0

> <PUBCHEM_HEAVY_ATOM_COUNT>
10

> <PUBCHEM_ATOM_DEF_STEREO_COUNT>
0

> <PUBCHEM_ATOM_UDEF_STEREO_COUNT>
0

> <PUBCHEM_BOND_DEF_STEREO_COUNT>
1

> <PUBCHEM_BOND_UDEF_STEREO_COUNT>
0

> <PUBCHEM_ISOTOPIC_ATOM_COUNT>
0

> <PUBCHEM_COMPONENT_COUNT>
1

> <PUBCHEM_CACTVS_TAUTO_COUNT>
1

> <PUBCHEM_COORDINATE_TYPE>
1
5
255

$$$$
8908
  -OEChem-02201912152D

 26 25  0     0  0  0  0  0  0999 V2000
    3.7320    0.7500    0.0000 O   0  0  0  0  0  0  0  0  0  0  0  0
    2.8660   -0.7500    0.0000 O   0  0  0  0  0  0  0  0  0  0  0  0
    6.3301    0.2500    0.0000 C   0  0  0  0  0  0  0  0  0  0  0  0
    7.1962    0.7500    0.0000 C   0  0  0  0  0  0  0  0  0  0  0  0
    5.4641    0.7500    0.0000 C   0  0  0  0  0  0  0  0  0  0  0  0
    8.0622    0.2500    0.0000 C   0  0  0  0  0  0  0  0  0  0  0  0
    4.5981    0.2500    0.0000 C   0  0  0  0  0  0  0  0  0  0  0  0
    8.9282    0.7500    0.0000 C   0  0  0  0  0  0  0  0  0  0  0  0
    2.8660    0.2500    0.0000 C   0  0  0  0  0  0  0  0  0  0  0  0
    2.0000    0.7500    0.0000 C   0  0  0  0  0  0  0  0  0  0  0  0
    5.9316   -0.2249    0.0000 H   0  0  0  0  0  0  0  0  0  0  0  0
    6.7287   -0.2249    0.0000 H   0  0  0  0  0  0  0  0  0  0  0  0
    7.5947    1.2250    0.0000 H   0  0  0  0  0  0  0  0  0  0  0  0
    6.7976    1.2250    0.0000 H   0  0  0  0  0  0  0  0  0  0  0  0
    5.8626    1.2250    0.0000 H   0  0  0  0  0  0  0  0  0  0  0  0
    5.0656    1.2250    0.0000 H   0  0  0  0  0  0  0  0  0  0  0  0
    7.6636   -0.2249    0.0000 H   0  0  0  0  0  0  0  0  0  0  0  0
    8.4607   -0.2249    0.0000 H   0  0  0  0  0  0  0  0  0  0  0  0
    4.1996   -0.2249    0.0000 H   0  0  0  0  0  0  0  0  0  0  0  0
    4.9966   -0.2249    0.0000 H   0  0  0  0  0  0  0  0  0  0  0  0
    9.2382    0.2131    0.0000 H   0  0  0  0  0  0  0  0  0  0  0  0
    9.4651    1.0600    0.0000 H   0  0  0  0  0  0  0  0  0  0  0  0
    8.6182    1.2869    0.0000 H   0  0  0  0  0  0  0  0  0  0  0  0
    2.3100    1.2869    0.0000 H   0  0  0  0  0  0  0  0  0  0  0  0
    1.4631    1.0600    0.0000 H   0  0  0  0  0  0  0  0  0  0  0  0
    1.6900    0.2131    0.0000 H   0  0  0  0  0  0  0  0  0  0  0  0
  1  7  1  0  0  0  0
  1  9  1  0  0  0  0
  2  9  2  0  0  0  0
  3  4  1  0  0  0  0
  3  5  1  0  0  0  0
  3 11  1  0  0  0  0
  3 12  1  0  0  0  0
  4  6  1  0  0  0  0
  4 13  1  0  0  0  0
  4 14  1  0  0  0  0
  5  7  1  0  0  0  0
  5 15  1  0  0  0  0
  5 16  1  0  0  0  0
  6  8  1  0  0  0  0
  6 17  1  0  0  0  0
  6 18  1  0  0  0  0
  7 19  1  0  0  0  0
  7 20  1  0  0  0  0
  8 21  1  0  0  0  0
  8 22  1  0  0  0  0
  8 23  1  0  0  0  0
  9 10  1  0  0  0  0
 10 24  1  0  0  0  0
 10 25  1  0  0  0  0
 10 26  1  0  0  0  0
M  END
> <PUBCHEM_COMPOUND_CID>
8908

> <PUBCHEM_COMPOUND_CANONICALIZED>
1

> <PUBCHEM_CACTVS_COMPLEXITY>
89.3

> <PUBCHEM_CACTVS_HBOND_ACCEPTOR>
2

> <PUBCHEM_CACTVS_HBOND_DONOR>
0

> <PUBCHEM_CACTVS_ROTATABLE_BOND>
6

> <PUBCHEM_CACTVS_SUBSKEYS>
AAADceBwMAAAAAAAAAAAAAAAAAAAAAAAAAAAAAAAAAAAAAAAAAAAGgAAAAAACACggAICCAAABAAIAACQCAAAAAAAAAAAAAAAAAAAAAIAAAACAAAEAAAAAAGAQAAAAAAAAAAAAAAAAAAAAAAAAAAAAAAAAA==

> <PUBCHEM_IUPAC_OPENEYE_NAME>
hexyl acetate

> <PUBCHEM_IUPAC_CAS_NAME>
acetic acid hexyl ester

> <PUBCHEM_IUPAC_NAME>
hexyl acetate

> <PUBCHEM_IUPAC_SYSTEMATIC_NAME>
hexyl ethanoate

> <PUBCHEM_IUPAC_TRADITIONAL_NAME>
acetic acid hexyl ester

> <PUBCHEM_IUPAC_INCHI>
InChI=1S/C8H16O2/c1-3-4-5-6-7-10-8(2)9/h3-7H2,1-2H3

> <PUBCHEM_IUPAC_INCHIKEY>
AOGQPLXWSUTHQB-UHFFFAOYSA-N

> <PUBCHEM_XLOGP3>
2.4

> <PUBCHEM_EXACT_MASS>
144.115

> <PUBCHEM_MOLECULAR_FORMULA>
C8H16O2

> <PUBCHEM_MOLECULAR_WEIGHT>
144.214

> <PUBCHEM_OPENEYE_CAN_SMILES>
CCCCCCOC(=O)C

> <PUBCHEM_OPENEYE_ISO_SMILES>
CCCCCCOC(=O)C

> <PUBCHEM_CACTVS_TPSA>
26.3

> <PUBCHEM_MONOISOTOPIC_WEIGHT>
144.115

> <PUBCHEM_TOTAL_CHARGE>
0

> <PUBCHEM_HEAVY_ATOM_COUNT>
10

> <PUBCHEM_ATOM_DEF_STEREO_COUNT>
0

> <PUBCHEM_ATOM_UDEF_STEREO_COUNT>
0

> <PUBCHEM_BOND_DEF_STEREO_COUNT>
0

> <PUBCHEM_BOND_UDEF_STEREO_COUNT>
0

> <PUBCHEM_ISOTOPIC_ATOM_COUNT>
0

> <PUBCHEM_COMPONENT_COUNT>
1

> <PUBCHEM_CACTVS_TAUTO_COUNT>
1

> <PUBCHEM_COORDINATE_TYPE>
1
5
255

$$$$
31289
  -OEChem-02201912152D

 28 27  0     0  0  0  0  0  0999 V2000
    9.7942    0.5600    0.0000 O   0  0  0  0  0  0  0  0  0  0  0  0
    5.4641    0.0600    0.0000 C   0  0  0  0  0  0  0  0  0  0  0  0
    4.5981    0.5600    0.0000 C   0  0  0  0  0  0  0  0  0  0  0  0
    6.3301    0.5600    0.0000 C   0  0  0  0  0  0  0  0  0  0  0  0
    3.7320    0.0600    0.0000 C   0  0  0  0  0  0  0  0  0  0  0  0
    7.1962    0.0600    0.0000 C   0  0  0  0  0  0  0  0  0  0  0  0
    2.8660    0.5600    0.0000 C   0  0  0  0  0  0  0  0  0  0  0  0
    8.0622    0.5600    0.0000 C   0  0  0  0  0  0  0  0  0  0  0  0
    2.0000    0.0600    0.0000 C   0  0  0  0  0  0  0  0  0  0  0  0
    8.9282    0.0600    0.0000 C   0  0  0  0  0  0  0  0  0  0  0  0
    5.0656   -0.4149    0.0000 H   0  0  0  0  0  0  0  0  0  0  0  0
    5.8626   -0.4149    0.0000 H   0  0  0  0  0  0  0  0  0  0  0  0
    4.9966    1.0350    0.0000 H   0  0  0  0  0  0  0  0  0  0  0  0
    4.1996    1.0350    0.0000 H   0  0  0  0  0  0  0  0  0  0  0  0
    6.7287    1.0350    0.0000 H   0  0  0  0  0  0  0  0  0  0  0  0
    5.9316    1.0350    0.0000 H   0  0  0  0  0  0  0  0  0  0  0  0
    3.3335   -0.4149    0.0000 H   0  0  0  0  0  0  0  0  0  0  0  0
    4.1306   -0.4149    0.0000 H   0  0  0  0  0  0  0  0  0  0  0  0
    6.7976   -0.4149    0.0000 H   0  0  0  0  0  0  0  0  0  0  0  0
    7.5947   -0.4149    0.0000 H   0  0  0  0  0  0  0  0  0  0  0  0
    3.2646    1.0350    0.0000 H   0  0  0  0  0  0  0  0  0  0  0  0
    2.4675    1.0350    0.0000 H   0  0  0  0  0  0  0  0  0  0  0  0
    8.4607    1.0350    0.0000 H   0  0  0  0  0  0  0  0  0  0  0  0
    7.6636    1.0350    0.0000 H   0  0  0  0  0  0  0  0  0  0  0  0
    1.6900    0.5969    0.0000 H   0  0  0  0  0  0  0  0  0  0  0  0
    1.4631   -0.2500    0.0000 H   0  0  0  0  0  0  0  0  0  0  0  0
    2.3100   -0.4769    0.0000 H   0  0  0  0  0  0  0  0  0  0  0  0
    8.9282   -0.5600    0.0000 H   0  0  0  0  0  0  0  0  0  0  0  0
  1 10  2  0  0  0  0
  2  3  1  0  0  0  0
  2  4  1  0  0  0  0
  2 11  1  0  0  0  0
  2 12  1  0  0  0  0
  3  5  1  0  0  0  0
  3 13  1  0  0  0  0
  3 14  1  0  0  0  0
  4  6  1  0  0  0  0
  4 15  1  0  0  0  0
  4 16  1  0  0  0  0
  5  7  1  0  0  0  0
  5 17  1  0  0  0  0
  5 18  1  0  0  0  0
  6  8  1  0  0  0  0
  6 19  1  0  0  0  0
  6 20  1  0  0  0  0
  7  9  1  0  0  0  0
  7 21  1  0  0  0  0
  7 22  1  0  0  0  0
  8 10  1  0  0  0  0
  8 23  1  0  0  0  0
  8 24  1  0  0  0  0
  9 25  1  0  0  0  0
  9 26  1  0  0  0  0
  9 27  1  0  0  0  0
 10 28  1  0  0  0  0
M  END
> <PUBCHEM_COMPOUND_CID>
31289

> <PUBCHEM_COMPOUND_CANONICALIZED>
1

> <PUBCHEM_CACTVS_COMPLEXITY>
69.1

> <PUBCHEM_CACTVS_HBOND_ACCEPTOR>
1

> <PUBCHEM_CACTVS_HBOND_DONOR>
0

> <PUBCHEM_CACTVS_ROTATABLE_BOND>
7

> <PUBCHEM_CACTVS_SUBSKEYS>
AAADceBwIAAAAAAAAAAAAAAAAAAAAAAAAAAAAAAAAAAAAAAAAAAAGgAAAAAACACggAICAAAAAAAIAAgQgAAAAAAAAAAAAAEAAAAAABIAAAAAAAAAAAAAAAEIiICAAAAAAAAAAAAAAAAAAAAAAAAAAAAAAA==

> <PUBCHEM_IUPAC_OPENEYE_NAME>
nonanal

> <PUBCHEM_IUPAC_CAS_NAME>
nonanal

> <PUBCHEM_IUPAC_NAME>
nonanal

> <PUBCHEM_IUPAC_SYSTEMATIC_NAME>
nonanal

> <PUBCHEM_IUPAC_TRADITIONAL_NAME>
pelargonaldehyde

> <PUBCHEM_IUPAC_INCHI>
InChI=1S/C9H18O/c1-2-3-4-5-6-7-8-9-10/h9H,2-8H2,1H3

> <PUBCHEM_IUPAC_INCHIKEY>
GYHFUZHODSMOHU-UHFFFAOYSA-N

> <PUBCHEM_XLOGP3_AA>
3.3

> <PUBCHEM_EXACT_MASS>
142.136

> <PUBCHEM_MOLECULAR_FORMULA>
C9H18O

> <PUBCHEM_MOLECULAR_WEIGHT>
142.242

> <PUBCHEM_OPENEYE_CAN_SMILES>
CCCCCCCCC=O

> <PUBCHEM_OPENEYE_ISO_SMILES>
CCCCCCCCC=O

> <PUBCHEM_CACTVS_TPSA>
17.1

> <PUBCHEM_MONOISOTOPIC_WEIGHT>
142.136

> <PUBCHEM_TOTAL_CHARGE>
0

> <PUBCHEM_HEAVY_ATOM_COUNT>
10

> <PUBCHEM_ATOM_DEF_STEREO_COUNT>
0

> <PUBCHEM_ATOM_UDEF_STEREO_COUNT>
0

> <PUBCHEM_BOND_DEF_STEREO_COUNT>
0

> <PUBCHEM_BOND_UDEF_STEREO_COUNT>
0

> <PUBCHEM_ISOTOPIC_ATOM_COUNT>
0

> <PUBCHEM_COMPONENT_COUNT>
1

> <PUBCHEM_CACTVS_TAUTO_COUNT>
-1

> <PUBCHEM_COORDINATE_TYPE>
1
5
255

$$$$
5354833
  -OEChem-02201912152D

 26 25  0     0  0  0  0  0  0999 V2000
    8.9282    1.3100    0.0000 O   0  0  0  0  0  0  0  0  0  0  0  0
    4.5981   -0.1900    0.0000 C   0  0  0  0  0  0  0  0  0  0  0  0
    3.7320   -0.6900    0.0000 C   0  0  0  0  0  0  0  0  0  0  0  0
    5.4641   -0.6900    0.0000 C   0  0  0  0  0  0  0  0  0  0  0  0
    2.8660   -0.1900    0.0000 C   0  0  0  0  0  0  0  0  0  0  0  0
    6.3301   -0.1900    0.0000 C   0  0  0  0  0  0  0  0  0  0  0  0
    2.0000   -0.6900    0.0000 C   0  0  0  0  0  0  0  0  0  0  0  0
    7.1962   -0.6900    0.0000 C   0  0  0  0  0  0  0  0  0  0  0  0
    8.0622   -0.1900    0.0000 C   0  0  0  0  0  0  0  0  0  0  0  0
    8.0622    0.8100    0.0000 C   0  0  0  0  0  0  0  0  0  0  0  0
    4.9966    0.2849    0.0000 H   0  0  0  0  0  0  0  0  0  0  0  0
    4.1996    0.2849    0.0000 H   0  0  0  0  0  0  0  0  0  0  0  0
    3.3335   -1.1650    0.0000 H   0  0  0  0  0  0  0  0  0  0  0  0
    4.1306   -1.1650    0.0000 H   0  0  0  0  0  0  0  0  0  0  0  0
    5.0656   -1.1650    0.0000 H   0  0  0  0  0  0  0  0  0  0  0  0
    5.8626   -1.1650    0.0000 H   0  0  0  0  0  0  0  0  0  0  0  0
    3.2646    0.2849    0.0000 H   0  0  0  0  0  0  0  0  0  0  0  0
    2.4675    0.2849    0.0000 H   0  0  0  0  0  0  0  0  0  0  0  0
    6.7287    0.2849    0.0000 H   0  0  0  0  0  0  0  0  0  0  0  0
    5.9316    0.2849    0.0000 H   0  0  0  0  0  0  0  0  0  0  0  0
    1.6900   -0.1531    0.0000 H   0  0  0  0  0  0  0  0  0  0  0  0
    1.4631   -1.0000    0.0000 H   0  0  0  0  0  0  0  0  0  0  0  0
    2.3100   -1.2269    0.0000 H   0  0  0  0  0  0  0  0  0  0  0  0
    7.1962   -1.3100    0.0000 H   0  0  0  0  0  0  0  0  0  0  0  0
    8.5991   -0.5000    0.0000 H   0  0  0  0  0  0  0  0  0  0  0  0
    7.5252    1.1200    0.0000 H   0  0  0  0  0  0  0  0  0  0  0  0
  1 10  2  0  0  0  0
  2  3  1  0  0  0  0
  2  4  1  0  0  0  0
  2 11  1  0  0  0  0
  2 12  1  0  0  0  0
  3  5  1  0  0  0  0
  3 13  1  0  0  0  0
  3 14  1  0  0  0  0
  4  6  1  0  0  0  0
  4 15  1  0  0  0  0
  4 16  1  0  0  0  0
  5  7  1  0  0  0  0
  5 17  1  0  0  0  0
  5 18  1  0  0  0  0
  6  8  1  0  0  0  0
  6 19  1  0  0  0  0
  6 20  1  0  0  0  0
  7 21  1  0  0  0  0
  7 22  1  0  0  0  0
  7 23  1  0  0  0  0
  8  9  2  0  0  0  0
  8 24  1  0  0  0  0
  9 10  1  0  0  0  0
  9 25  1  0  0  0  0
 10 26  1  0  0  0  0
M  END
> <PUBCHEM_COMPOUND_CID>
5354833

> <PUBCHEM_COMPOUND_CANONICALIZED>
1

> <PUBCHEM_CACTVS_COMPLEXITY>
94.9

> <PUBCHEM_CACTVS_HBOND_ACCEPTOR>
1

> <PUBCHEM_CACTVS_HBOND_DONOR>
0

> <PUBCHEM_CACTVS_ROTATABLE_BOND>
6

> <PUBCHEM_CACTVS_SUBSKEYS>
AAADceBwIAAAAAAAAAAAAAAAAAAAAAAAAAAAAAAAAAAAAAAAAAAAGgAAAAAACACggAICAAAAAACIAChSgAAAAAAgAAAICAAAAEgAAAIAAQAAAAAAgAAIAYMAgAAAAAAAAAAAAAAAAAAAAAAAAAAAAAAAAA==

> <PUBCHEM_IUPAC_OPENEYE_NAME>
(~{Z})-non-2-enal

> <PUBCHEM_IUPAC_CAS_NAME>
(~{Z})-2-nonenal

> <PUBCHEM_IUPAC_NAME>
(~{Z})-non-2-enal

> <PUBCHEM_IUPAC_SYSTEMATIC_NAME>
(~{Z})-non-2-enal

> <PUBCHEM_IUPAC_TRADITIONAL_NAME>
(~{Z})-non-2-enal

> <PUBCHEM_IUPAC_INCHI>
InChI=1S/C9H16O/c1-2-3-4-5-6-7-8-9-10/h7-9H,2-6H2,1H3/b8-7-

> <PUBCHEM_IUPAC_INCHIKEY>
BSAIUMLZVGUGKX-FPLPWBNLSA-N

> <PUBCHEM_XLOGP3_AA>
3.1

> <PUBCHEM_EXACT_MASS>
140.12

> <PUBCHEM_MOLECULAR_FORMULA>
C9H16O

> <PUBCHEM_MOLECULAR_WEIGHT>
140.226

> <PUBCHEM_OPENEYE_CAN_SMILES>
CCCCCCC=CC=O

> <PUBCHEM_OPENEYE_ISO_SMILES>
CCCCCC/C=C\C=O

> <PUBCHEM_CACTVS_TPSA>
17.1

> <PUBCHEM_MONOISOTOPIC_WEIGHT>
140.12

> <PUBCHEM_TOTAL_CHARGE>
0

> <PUBCHEM_HEAVY_ATOM_COUNT>
10

> <PUBCHEM_ATOM_DEF_STEREO_COUNT>
0

> <PUBCHEM_ATOM_UDEF_STEREO_COUNT>
0

> <PUBCHEM_BOND_DEF_STEREO_COUNT>
1

> <PUBCHEM_BOND_UDEF_STEREO_COUNT>
0

> <PUBCHEM_ISOTOPIC_ATOM_COUNT>
0

> <PUBCHEM_COMPONENT_COUNT>
1

> <PUBCHEM_CACTVS_TAUTO_COUNT>
1

> <PUBCHEM_COORDINATE_TYPE>
1
5
255

$$$$
454
  -OEChem-02201912152D

 25 24  0     0  0  0  0  0  0999 V2000
    2.0000   -0.5600    0.0000 O   0  0  0  0  0  0  0  0  0  0  0  0
    6.3301   -0.0600    0.0000 C   0  0  0  0  0  0  0  0  0  0  0  0
    5.4641   -0.5600    0.0000 C   0  0  0  0  0  0  0  0  0  0  0  0
    7.1962   -0.5600    0.0000 C   0  0  0  0  0  0  0  0  0  0  0  0
    4.5981   -0.0600    0.0000 C   0  0  0  0  0  0  0  0  0  0  0  0
    8.0622   -0.0600    0.0000 C   0  0  0  0  0  0  0  0  0  0  0  0
    3.7320   -0.5600    0.0000 C   0  0  0  0  0  0  0  0  0  0  0  0
    8.9282   -0.5600    0.0000 C   0  0  0  0  0  0  0  0  0  0  0  0
    2.8660   -0.0600    0.0000 C   0  0  0  0  0  0  0  0  0  0  0  0
    6.7287    0.4149    0.0000 H   0  0  0  0  0  0  0  0  0  0  0  0
    5.9316    0.4149    0.0000 H   0  0  0  0  0  0  0  0  0  0  0  0
    5.0656   -1.0350    0.0000 H   0  0  0  0  0  0  0  0  0  0  0  0
    5.8626   -1.0350    0.0000 H   0  0  0  0  0  0  0  0  0  0  0  0
    6.7976   -1.0350    0.0000 H   0  0  0  0  0  0  0  0  0  0  0  0
    7.5947   -1.0350    0.0000 H   0  0  0  0  0  0  0  0  0  0  0  0
    4.9966    0.4149    0.0000 H   0  0  0  0  0  0  0  0  0  0  0  0
    4.1996    0.4149    0.0000 H   0  0  0  0  0  0  0  0  0  0  0  0
    8.4607    0.4149    0.0000 H   0  0  0  0  0  0  0  0  0  0  0  0
    7.6636    0.4149    0.0000 H   0  0  0  0  0  0  0  0  0  0  0  0
    3.3335   -1.0350    0.0000 H   0  0  0  0  0  0  0  0  0  0  0  0
    4.1306   -1.0350    0.0000 H   0  0  0  0  0  0  0  0  0  0  0  0
    8.6182   -1.0969    0.0000 H   0  0  0  0  0  0  0  0  0  0  0  0
    9.4651   -0.8700    0.0000 H   0  0  0  0  0  0  0  0  0  0  0  0
    9.2382   -0.0231    0.0000 H   0  0  0  0  0  0  0  0  0  0  0  0
    2.8660    0.5600    0.0000 H   0  0  0  0  0  0  0  0  0  0  0  0
  1  9  2  0  0  0  0
  2  3  1  0  0  0  0
  2  4  1  0  0  0  0
  2 10  1  0  0  0  0
  2 11  1  0  0  0  0
  3  5  1  0  0  0  0
  3 12  1  0  0  0  0
  3 13  1  0  0  0  0
  4  6  1  0  0  0  0
  4 14  1  0  0  0  0
  4 15  1  0  0  0  0
  5  7  1  0  0  0  0
  5 16  1  0  0  0  0
  5 17  1  0  0  0  0
  6  8  1  0  0  0  0
  6 18  1  0  0  0  0
  6 19  1  0  0  0  0
  7  9  1  0  0  0  0
  7 20  1  0  0  0  0
  7 21  1  0  0  0  0
  8 22  1  0  0  0  0
  8 23  1  0  0  0  0
  8 24  1  0  0  0  0
  9 25  1  0  0  0  0
M  END
> <PUBCHEM_COMPOUND_CID>
454

> <PUBCHEM_COMPOUND_CANONICALIZED>
1

> <PUBCHEM_CACTVS_COMPLEXITY>
59.6

> <PUBCHEM_CACTVS_HBOND_ACCEPTOR>
1

> <PUBCHEM_CACTVS_HBOND_DONOR>
0

> <PUBCHEM_CACTVS_ROTATABLE_BOND>
6

> <PUBCHEM_CACTVS_SUBSKEYS>
AAADceBwIAAAAAAAAAAAAAAAAAAAAAAAAAAAAAAAAAAAAAAAAAAAGgAAAAAACACggAICAAAAAAAIAAgQgAAAAAAAAAAAAAEAAAAAABIAAAAAAAAAAAAAAAEIiICAAAAAAAAAAAAAAAAAAAAAAAAAAAAAAA==

> <PUBCHEM_IUPAC_OPENEYE_NAME>
octanal

> <PUBCHEM_IUPAC_CAS_NAME>
octanal

> <PUBCHEM_IUPAC_NAME>
octanal

> <PUBCHEM_IUPAC_SYSTEMATIC_NAME>
octanal

> <PUBCHEM_IUPAC_TRADITIONAL_NAME>
caprylaldehyde

> <PUBCHEM_IUPAC_INCHI>
InChI=1S/C8H16O/c1-2-3-4-5-6-7-8-9/h8H,2-7H2,1H3

> <PUBCHEM_IUPAC_INCHIKEY>
NUJGJRNETVAIRJ-UHFFFAOYSA-N

> <PUBCHEM_XLOGP3_AA>
2.7

> <PUBCHEM_EXACT_MASS>
128.12

> <PUBCHEM_MOLECULAR_FORMULA>
C8H16O

> <PUBCHEM_MOLECULAR_WEIGHT>
128.215

> <PUBCHEM_OPENEYE_CAN_SMILES>
CCCCCCCC=O

> <PUBCHEM_OPENEYE_ISO_SMILES>
CCCCCCCC=O

> <PUBCHEM_CACTVS_TPSA>
17.1

> <PUBCHEM_MONOISOTOPIC_WEIGHT>
128.12

> <PUBCHEM_TOTAL_CHARGE>
0

> <PUBCHEM_HEAVY_ATOM_COUNT>
9

> <PUBCHEM_ATOM_DEF_STEREO_COUNT>
0

> <PUBCHEM_ATOM_UDEF_STEREO_COUNT>
0

> <PUBCHEM_BOND_DEF_STEREO_COUNT>
0

> <PUBCHEM_BOND_UDEF_STEREO_COUNT>
0

> <PUBCHEM_ISOTOPIC_ATOM_COUNT>
0

> <PUBCHEM_COMPONENT_COUNT>
1

> <PUBCHEM_CACTVS_TAUTO_COUNT>
-1

> <PUBCHEM_COORDINATE_TYPE>
1
5
255

$$$$
5283324
  -OEChem-02201912152D

 23 22  0     0  0  0  0  0  0999 V2000
    2.0000   -0.2500    0.0000 O   0  0  0  0  0  0  0  0  0  0  0  0
    7.1962   -0.2500    0.0000 C   0  0  0  0  0  0  0  0  0  0  0  0
    6.3301    0.2500    0.0000 C   0  0  0  0  0  0  0  0  0  0  0  0
    8.0622    0.2500    0.0000 C   0  0  0  0  0  0  0  0  0  0  0  0
    5.4641   -0.2500    0.0000 C   0  0  0  0  0  0  0  0  0  0  0  0
    8.9282   -0.2500    0.0000 C   0  0  0  0  0  0  0  0  0  0  0  0
    4.5981    0.2500    0.0000 C   0  0  0  0  0  0  0  0  0  0  0  0
    3.7320   -0.2500    0.0000 C   0  0  0  0  0  0  0  0  0  0  0  0
    2.8660    0.2500    0.0000 C   0  0  0  0  0  0  0  0  0  0  0  0
    6.7976   -0.7249    0.0000 H   0  0  0  0  0  0  0  0  0  0  0  0
    7.5947   -0.7249    0.0000 H   0  0  0  0  0  0  0  0  0  0  0  0
    6.7287    0.7249    0.0000 H   0  0  0  0  0  0  0  0  0  0  0  0
    5.9316    0.7249    0.0000 H   0  0  0  0  0  0  0  0  0  0  0  0
    8.4607    0.7249    0.0000 H   0  0  0  0  0  0  0  0  0  0  0  0
    7.6636    0.7249    0.0000 H   0  0  0  0  0  0  0  0  0  0  0  0
    5.0656   -0.7249    0.0000 H   0  0  0  0  0  0  0  0  0  0  0  0
    5.8626   -0.7249    0.0000 H   0  0  0  0  0  0  0  0  0  0  0  0
    8.6182   -0.7869    0.0000 H   0  0  0  0  0  0  0  0  0  0  0  0
    9.4651   -0.5600    0.0000 H   0  0  0  0  0  0  0  0  0  0  0  0
    9.2382    0.2869    0.0000 H   0  0  0  0  0  0  0  0  0  0  0  0
    4.5981    0.8700    0.0000 H   0  0  0  0  0  0  0  0  0  0  0  0
    3.7320   -0.8700    0.0000 H   0  0  0  0  0  0  0  0  0  0  0  0
    2.8660    0.8700    0.0000 H   0  0  0  0  0  0  0  0  0  0  0  0
  1  9  2  0  0  0  0
  2  3  1  0  0  0  0
  2  4  1  0  0  0  0
  2 10  1  0  0  0  0
  2 11  1  0  0  0  0
  3  5  1  0  0  0  0
  3 12  1  0  0  0  0
  3 13  1  0  0  0  0
  4  6  1  0  0  0  0
  4 14  1  0  0  0  0
  4 15  1  0  0  0  0
  5  7  1  0  0  0  0
  5 16  1  0  0  0  0
  5 17  1  0  0  0  0
  6 18  1  0  0  0  0
  6 19  1  0  0  0  0
  6 20  1  0  0  0  0
  7  8  2  0  0  0  0
  7 21  1  0  0  0  0
  8  9  1  0  0  0  0
  8 22  1  0  0  0  0
  9 23  1  0  0  0  0
M  END
> <PUBCHEM_COMPOUND_CID>
5283324

> <PUBCHEM_COMPOUND_CANONICALIZED>
1

> <PUBCHEM_CACTVS_COMPLEXITY>
84.6

> <PUBCHEM_CACTVS_HBOND_ACCEPTOR>
1

> <PUBCHEM_CACTVS_HBOND_DONOR>
0

> <PUBCHEM_CACTVS_ROTATABLE_BOND>
5

> <PUBCHEM_CACTVS_SUBSKEYS>
AAADccBwIAAAAAAAAAAAAAAAAAAAAAAAAAAAAAAAAAAAAAAAAAAAGgAAAAAACACggAICAAAAAACIAChSgAAAAAAgAAAICAAAAEgAAAIAAQAAAAAAgAAIAYMAAAAAAAAAAAAAAAAAAAAAAAAAAAAAAAAAAA==

> <PUBCHEM_IUPAC_OPENEYE_NAME>
(~{E})-oct-2-enal

> <PUBCHEM_IUPAC_CAS_NAME>
(~{E})-2-octenal

> <PUBCHEM_IUPAC_NAME>
(~{E})-oct-2-enal

> <PUBCHEM_IUPAC_SYSTEMATIC_NAME>
(~{E})-oct-2-enal

> <PUBCHEM_IUPAC_TRADITIONAL_NAME>
(~{E})-oct-2-enal

> <PUBCHEM_IUPAC_INCHI>
InChI=1S/C8H14O/c1-2-3-4-5-6-7-8-9/h6-8H,2-5H2,1H3/b7-6+

> <PUBCHEM_IUPAC_INCHIKEY>
LVBXEMGDVWVTGY-VOTSOKGWSA-N

> <PUBCHEM_XLOGP3_AA>
2.6

> <PUBCHEM_EXACT_MASS>
126.104

> <PUBCHEM_MOLECULAR_FORMULA>
C8H14O

> <PUBCHEM_MOLECULAR_WEIGHT>
126.199

> <PUBCHEM_OPENEYE_CAN_SMILES>
CCCCCC=CC=O

> <PUBCHEM_OPENEYE_ISO_SMILES>
CCCCC/C=C/C=O

> <PUBCHEM_CACTVS_TPSA>
17.1

> <PUBCHEM_MONOISOTOPIC_WEIGHT>
126.104

> <PUBCHEM_TOTAL_CHARGE>
0

> <PUBCHEM_HEAVY_ATOM_COUNT>
9

> <PUBCHEM_ATOM_DEF_STEREO_COUNT>
0

> <PUBCHEM_ATOM_UDEF_STEREO_COUNT>
0

> <PUBCHEM_BOND_DEF_STEREO_COUNT>
1

> <PUBCHEM_BOND_UDEF_STEREO_COUNT>
0

> <PUBCHEM_ISOTOPIC_ATOM_COUNT>
0

> <PUBCHEM_COMPONENT_COUNT>
1

> <PUBCHEM_CACTVS_TAUTO_COUNT>
1

> <PUBCHEM_COORDINATE_TYPE>
1
5
255

$$$$
18827
  -OEChem-02201912152D

 25 24  0     1  0  0  0  0  0999 V2000
    2.5369    1.0000    0.0000 O   0  0  0  0  0  0  0  0  0  0  0  0
    5.1350    0.5000    0.0000 C   0  0  0  0  0  0  0  0  0  0  0  0
    6.0010    1.0000    0.0000 C   0  0  0  0  0  0  0  0  0  0  0  0
    4.2690    1.0000    0.0000 C   0  0  0  0  0  0  0  0  0  0  0  0
    6.8671    0.5000    0.0000 C   0  0  0  0  0  0  0  0  0  0  0  0
    3.4030    0.5000    0.0000 C   0  0  3  0  0  0  0  0  0  0  0  0
    7.7331    1.0000    0.0000 C   0  0  0  0  0  0  0  0  0  0  0  0
    3.4030   -0.5000    0.0000 C   0  0  0  0  0  0  0  0  0  0  0  0
    2.5369   -1.0000    0.0000 C   0  0  0  0  0  0  0  0  0  0  0  0
    4.7365    0.0251    0.0000 H   0  0  0  0  0  0  0  0  0  0  0  0
    5.5335    0.0251    0.0000 H   0  0  0  0  0  0  0  0  0  0  0  0
    6.3996    1.4750    0.0000 H   0  0  0  0  0  0  0  0  0  0  0  0
    5.6025    1.4750    0.0000 H   0  0  0  0  0  0  0  0  0  0  0  0
    4.6675    1.4750    0.0000 H   0  0  0  0  0  0  0  0  0  0  0  0
    3.8705    1.4750    0.0000 H   0  0  0  0  0  0  0  0  0  0  0  0
    6.4685    0.0251    0.0000 H   0  0  0  0  0  0  0  0  0  0  0  0
    7.2656    0.0251    0.0000 H   0  0  0  0  0  0  0  0  0  0  0  0
    3.4030    1.3500    0.0000 H   0  0  0  0  0  0  0  0  0  0  0  0
    8.0431    0.4631    0.0000 H   0  0  0  0  0  0  0  0  0  0  0  0
    8.2700    1.3100    0.0000 H   0  0  0  0  0  0  0  0  0  0  0  0
    7.4231    1.5369    0.0000 H   0  0  0  0  0  0  0  0  0  0  0  0
    3.9399   -0.8100    0.0000 H   0  0  0  0  0  0  0  0  0  0  0  0
    2.0000    0.6900    0.0000 H   0  0  0  0  0  0  0  0  0  0  0  0
    2.0000   -0.6900    0.0000 H   0  0  0  0  0  0  0  0  0  0  0  0
    2.5369   -1.6200    0.0000 H   0  0  0  0  0  0  0  0  0  0  0  0
  1  6  1  0  0  0  0
  1 23  1  0  0  0  0
  2  3  1  0  0  0  0
  2  4  1  0  0  0  0
  2 10  1  0  0  0  0
  2 11  1  0  0  0  0
  3  5  1  0  0  0  0
  3 12  1  0  0  0  0
  3 13  1  0  0  0  0
  4  6  1  0  0  0  0
  4 14  1  0  0  0  0
  4 15  1  0  0  0  0
  5  7  1  0  0  0  0
  5 16  1  0  0  0  0
  5 17  1  0  0  0  0
  6  8  1  0  0  0  0
  6 18  1  0  0  0  0
  7 19  1  0  0  0  0
  7 20  1  0  0  0  0
  7 21  1  0  0  0  0
  8  9  2  0  0  0  0
  8 22  1  0  0  0  0
  9 24  1  0  0  0  0
  9 25  1  0  0  0  0
M  END
> <PUBCHEM_COMPOUND_CID>
18827

> <PUBCHEM_COMPOUND_CANONICALIZED>
1

> <PUBCHEM_CACTVS_COMPLEXITY>
69

> <PUBCHEM_CACTVS_HBOND_ACCEPTOR>
1

> <PUBCHEM_CACTVS_HBOND_DONOR>
1

> <PUBCHEM_CACTVS_ROTATABLE_BOND>
5

> <PUBCHEM_CACTVS_SUBSKEYS>
AAADceBwIAAAAAAAAAAAAAAAAAAAAAAAAAAAAAAAAAAAAAAAAAAAGgAACAAACBSggAICAAAAAgCAACBCAAAAAAAgAAAIAAAAAAgAFAIAAQAAQAAEgAAAEAGAwAAAAAAAAAAAAAAAAAAAAAAAAAAAAAAAAA==

> <PUBCHEM_IUPAC_OPENEYE_NAME>
oct-1-en-3-ol

> <PUBCHEM_IUPAC_CAS_NAME>
1-octen-3-ol

> <PUBCHEM_IUPAC_NAME>
oct-1-en-3-ol

> <PUBCHEM_IUPAC_SYSTEMATIC_NAME>
oct-1-en-3-ol

> <PUBCHEM_IUPAC_TRADITIONAL_NAME>
oct-1-en-3-ol

> <PUBCHEM_IUPAC_INCHI>
InChI=1S/C8H16O/c1-3-5-6-7-8(9)4-2/h4,8-9H,2-3,5-7H2,1H3

> <PUBCHEM_IUPAC_INCHIKEY>
VSMOENVRRABVKN-UHFFFAOYSA-N

> <PUBCHEM_XLOGP3_AA>
2.6

> <PUBCHEM_EXACT_MASS>
128.12

> <PUBCHEM_MOLECULAR_FORMULA>
C8H16O

> <PUBCHEM_MOLECULAR_WEIGHT>
128.215

> <PUBCHEM_OPENEYE_CAN_SMILES>
CCCCCC(C=C)O

> <PUBCHEM_OPENEYE_ISO_SMILES>
CCCCCC(C=C)O

> <PUBCHEM_CACTVS_TPSA>
20.2

> <PUBCHEM_MONOISOTOPIC_WEIGHT>
128.12

> <PUBCHEM_TOTAL_CHARGE>
0

> <PUBCHEM_HEAVY_ATOM_COUNT>
9

> <PUBCHEM_ATOM_DEF_STEREO_COUNT>
0

> <PUBCHEM_ATOM_UDEF_STEREO_COUNT>
1

> <PUBCHEM_BOND_DEF_STEREO_COUNT>
0

> <PUBCHEM_BOND_UDEF_STEREO_COUNT>
0

> <PUBCHEM_ISOTOPIC_ATOM_COUNT>
0

> <PUBCHEM_COMPONENT_COUNT>
1

> <PUBCHEM_CACTVS_TAUTO_COUNT>
-1

> <PUBCHEM_COORDINATE_TYPE>
1
5
255

> <PUBCHEM_BONDANNOTATIONS>
6  18  3

$$$$
5363374
  -OEChem-02201912152D

 24 23  0     0  0  0  0  0  0999 V2000
    3.7320    1.1900    0.0000 O   0  0  0  0  0  0  0  0  0  0  0  0
    2.8660   -0.3100    0.0000 O   0  0  0  0  0  0  0  0  0  0  0  0
    6.3301   -0.3100    0.0000 C   0  0  0  0  0  0  0  0  0  0  0  0
    7.1962   -0.8100    0.0000 C   0  0  0  0  0  0  0  0  0  0  0  0
    6.3301    0.6900    0.0000 C   0  0  0  0  0  0  0  0  0  0  0  0
    7.1962   -1.8100    0.0000 C   0  0  0  0  0  0  0  0  0  0  0  0
    5.4641    1.1900    0.0000 C   0  0  0  0  0  0  0  0  0  0  0  0
    4.5981    0.6900    0.0000 C   0  0  0  0  0  0  0  0  0  0  0  0
    2.8660    0.6900    0.0000 C   0  0  0  0  0  0  0  0  0  0  0  0
    2.0000    1.1900    0.0000 C   0  0  0  0  0  0  0  0  0  0  0  0
    5.7196   -0.2023    0.0000 H   0  0  0  0  0  0  0  0  0  0  0  0
    6.1181   -0.8926    0.0000 H   0  0  0  0  0  0  0  0  0  0  0  0
    7.8067   -0.9177    0.0000 H   0  0  0  0  0  0  0  0  0  0  0  0
    7.4082   -0.2274    0.0000 H   0  0  0  0  0  0  0  0  0  0  0  0
    6.8671    1.0000    0.0000 H   0  0  0  0  0  0  0  0  0  0  0  0
    6.5762   -1.8100    0.0000 H   0  0  0  0  0  0  0  0  0  0  0  0
    7.1962   -2.4300    0.0000 H   0  0  0  0  0  0  0  0  0  0  0  0
    7.8162   -1.8100    0.0000 H   0  0  0  0  0  0  0  0  0  0  0  0
    5.4641    1.8100    0.0000 H   0  0  0  0  0  0  0  0  0  0  0  0
    4.1996    0.2151    0.0000 H   0  0  0  0  0  0  0  0  0  0  0  0
    4.9966    0.2151    0.0000 H   0  0  0  0  0  0  0  0  0  0  0  0
    2.3100    1.7269    0.0000 H   0  0  0  0  0  0  0  0  0  0  0  0
    1.4631    1.5000    0.0000 H   0  0  0  0  0  0  0  0  0  0  0  0
    1.6900    0.6531    0.0000 H   0  0  0  0  0  0  0  0  0  0  0  0
  1  8  1  0  0  0  0
  1  9  1  0  0  0  0
  2  9  2  0  0  0  0
  3  4  1  0  0  0  0
  3  5  1  0  0  0  0
  3 11  1  0  0  0  0
  3 12  1  0  0  0  0
  4  6  1  0  0  0  0
  4 13  1  0  0  0  0
  4 14  1  0  0  0  0
  5  7  2  0  0  0  0
  5 15  1  0  0  0  0
  6 16  1  0  0  0  0
  6 17  1  0  0  0  0
  6 18  1  0  0  0  0
  7  8  1  0  0  0  0
  7 19  1  0  0  0  0
  8 20  1  0  0  0  0
  8 21  1  0  0  0  0
  9 10  1  0  0  0  0
 10 22  1  0  0  0  0
 10 23  1  0  0  0  0
 10 24  1  0  0  0  0
M  END
> <PUBCHEM_COMPOUND_CID>
5363374

> <PUBCHEM_COMPOUND_CANONICALIZED>
1

> <PUBCHEM_CACTVS_COMPLEXITY>
116

> <PUBCHEM_CACTVS_HBOND_ACCEPTOR>
2

> <PUBCHEM_CACTVS_HBOND_DONOR>
0

> <PUBCHEM_CACTVS_ROTATABLE_BOND>
5

> <PUBCHEM_CACTVS_SUBSKEYS>
AAADccBwMAAAAAAAAAAAAAAAAAAAAAAAAAAAAAAAAAAAAAAAAAAAGgAAAAAACACggAICCAAABACIACDSCAAAAAAgAAAICAAAAAgABAAAIQACEAAAgAAIIAIAAAAAAAAAAAAAAAAAAAAAAAAAAAAAAAAAAA==

> <PUBCHEM_IUPAC_OPENEYE_NAME>
[(~{Z})-hex-2-enyl] acetate

> <PUBCHEM_IUPAC_CAS_NAME>
acetic acid [(~{Z})-hex-2-enyl] ester

> <PUBCHEM_IUPAC_NAME>
[(~{Z})-hex-2-enyl] acetate

> <PUBCHEM_IUPAC_SYSTEMATIC_NAME>
[(~{Z})-hex-2-enyl] ethanoate

> <PUBCHEM_IUPAC_TRADITIONAL_NAME>
acetic acid [(~{Z})-hex-2-enyl] ester

> <PUBCHEM_IUPAC_INCHI>
InChI=1S/C8H14O2/c1-3-4-5-6-7-10-8(2)9/h5-6H,3-4,7H2,1-2H3/b6-5-

> <PUBCHEM_IUPAC_INCHIKEY>
HRHOWZHRCRZVCU-WAYWQWQTSA-N

> <PUBCHEM_XLOGP3_AA>
2

> <PUBCHEM_EXACT_MASS>
142.099

> <PUBCHEM_MOLECULAR_FORMULA>
C8H14O2

> <PUBCHEM_MOLECULAR_WEIGHT>
142.198

> <PUBCHEM_OPENEYE_CAN_SMILES>
CCCC=CCOC(=O)C

> <PUBCHEM_OPENEYE_ISO_SMILES>
CCC/C=C\COC(=O)C

> <PUBCHEM_CACTVS_TPSA>
26.3

> <PUBCHEM_MONOISOTOPIC_WEIGHT>
142.099

> <PUBCHEM_TOTAL_CHARGE>
0

> <PUBCHEM_HEAVY_ATOM_COUNT>
10

> <PUBCHEM_ATOM_DEF_STEREO_COUNT>
0

> <PUBCHEM_ATOM_UDEF_STEREO_COUNT>
0

> <PUBCHEM_BOND_DEF_STEREO_COUNT>
1

> <PUBCHEM_BOND_UDEF_STEREO_COUNT>
0

> <PUBCHEM_ISOTOPIC_ATOM_COUNT>
0

> <PUBCHEM_COMPONENT_COUNT>
1

> <PUBCHEM_CACTVS_TAUTO_COUNT>
1

> <PUBCHEM_COORDINATE_TYPE>
1
5
255

$$$$
5363388
  -OEChem-02201912152D

 24 23  0     0  0  0  0  0  0999 V2000
    3.7320    0.0000    0.0000 O   0  0  0  0  0  0  0  0  0  0  0  0
    2.8660   -1.5000    0.0000 O   0  0  0  0  0  0  0  0  0  0  0  0
    5.4641    0.0000    0.0000 C   0  0  0  0  0  0  0  0  0  0  0  0
    4.5981   -0.5000    0.0000 C   0  0  0  0  0  0  0  0  0  0  0  0
    6.3301   -0.5000    0.0000 C   0  0  0  0  0  0  0  0  0  0  0  0
    7.1962    1.0000    0.0000 C   0  0  0  0  0  0  0  0  0  0  0  0
    7.1962   -0.0000    0.0000 C   0  0  0  0  0  0  0  0  0  0  0  0
    8.0622    1.5000    0.0000 C   0  0  0  0  0  0  0  0  0  0  0  0
    2.8660   -0.5000    0.0000 C   0  0  0  0  0  0  0  0  0  0  0  0
    2.0000    0.0000    0.0000 C   0  0  0  0  0  0  0  0  0  0  0  0
    5.8626    0.4749    0.0000 H   0  0  0  0  0  0  0  0  0  0  0  0
    5.0656    0.4749    0.0000 H   0  0  0  0  0  0  0  0  0  0  0  0
    4.1996   -0.9749    0.0000 H   0  0  0  0  0  0  0  0  0  0  0  0
    4.9966   -0.9749    0.0000 H   0  0  0  0  0  0  0  0  0  0  0  0
    6.3301   -1.1200    0.0000 H   0  0  0  0  0  0  0  0  0  0  0  0
    6.9841    1.5826    0.0000 H   0  0  0  0  0  0  0  0  0  0  0  0
    6.5856    0.8923    0.0000 H   0  0  0  0  0  0  0  0  0  0  0  0
    7.7331   -0.3100    0.0000 H   0  0  0  0  0  0  0  0  0  0  0  0
    8.3722    0.9631    0.0000 H   0  0  0  0  0  0  0  0  0  0  0  0
    8.5991    1.8100    0.0000 H   0  0  0  0  0  0  0  0  0  0  0  0
    7.7522    2.0369    0.0000 H   0  0  0  0  0  0  0  0  0  0  0  0
    2.3100    0.5369    0.0000 H   0  0  0  0  0  0  0  0  0  0  0  0
    1.4631    0.3100    0.0000 H   0  0  0  0  0  0  0  0  0  0  0  0
    1.6900   -0.5369    0.0000 H   0  0  0  0  0  0  0  0  0  0  0  0
  1  4  1  0  0  0  0
  1  9  1  0  0  0  0
  2  9  2  0  0  0  0
  3  4  1  0  0  0  0
  3  5  1  0  0  0  0
  3 11  1  0  0  0  0
  3 12  1  0  0  0  0
  4 13  1  0  0  0  0
  4 14  1  0  0  0  0
  5  7  2  0  0  0  0
  5 15  1  0  0  0  0
  6  7  1  0  0  0  0
  6  8  1  0  0  0  0
  6 16  1  0  0  0  0
  6 17  1  0  0  0  0
  7 18  1  0  0  0  0
  8 19  1  0  0  0  0
  8 20  1  0  0  0  0
  8 21  1  0  0  0  0
  9 10  1  0  0  0  0
 10 22  1  0  0  0  0
 10 23  1  0  0  0  0
 10 24  1  0  0  0  0
M  END
> <PUBCHEM_COMPOUND_CID>
5363388

> <PUBCHEM_COMPOUND_CANONICALIZED>
1

> <PUBCHEM_CACTVS_COMPLEXITY>
116

> <PUBCHEM_CACTVS_HBOND_ACCEPTOR>
2

> <PUBCHEM_CACTVS_HBOND_DONOR>
0

> <PUBCHEM_CACTVS_ROTATABLE_BOND>
5

> <PUBCHEM_CACTVS_SUBSKEYS>
AAADccBwMAAAAAAAAAAAAAAAAAAAAAAAAAAAAAAAAAAAAAAAAAAAGgAAAAAACACggAICCAAABACIACDSCAAAAAAgAAAICAAAAAgAAAAAAQACAAAAQAAIAAIAAAAAAAAAAAAAAAAAAAAAAAAAAAAAAAAAAA==

> <PUBCHEM_IUPAC_OPENEYE_NAME>
[(~{Z})-hex-3-enyl] acetate

> <PUBCHEM_IUPAC_CAS_NAME>
acetic acid [(~{Z})-hex-3-enyl] ester

> <PUBCHEM_IUPAC_NAME>
[(~{Z})-hex-3-enyl] acetate

> <PUBCHEM_IUPAC_SYSTEMATIC_NAME>
[(~{Z})-hex-3-enyl] ethanoate

> <PUBCHEM_IUPAC_TRADITIONAL_NAME>
acetic acid [(~{Z})-hex-3-enyl] ester

> <PUBCHEM_IUPAC_INCHI>
InChI=1S/C8H14O2/c1-3-4-5-6-7-10-8(2)9/h4-5H,3,6-7H2,1-2H3/b5-4-

> <PUBCHEM_IUPAC_INCHIKEY>
NPFVOOAXDOBMCE-PLNGDYQASA-N

> <PUBCHEM_XLOGP3_AA>
1.9

> <PUBCHEM_EXACT_MASS>
142.099

> <PUBCHEM_MOLECULAR_FORMULA>
C8H14O2

> <PUBCHEM_MOLECULAR_WEIGHT>
142.198

> <PUBCHEM_OPENEYE_CAN_SMILES>
CCC=CCCOC(=O)C

> <PUBCHEM_OPENEYE_ISO_SMILES>
CC/C=C\CCOC(=O)C

> <PUBCHEM_CACTVS_TPSA>
26.3

> <PUBCHEM_MONOISOTOPIC_WEIGHT>
142.099

> <PUBCHEM_TOTAL_CHARGE>
0

> <PUBCHEM_HEAVY_ATOM_COUNT>
10

> <PUBCHEM_ATOM_DEF_STEREO_COUNT>
0

> <PUBCHEM_ATOM_UDEF_STEREO_COUNT>
0

> <PUBCHEM_BOND_DEF_STEREO_COUNT>
1

> <PUBCHEM_BOND_UDEF_STEREO_COUNT>
0

> <PUBCHEM_ISOTOPIC_ATOM_COUNT>
0

> <PUBCHEM_COMPONENT_COUNT>
1

> <PUBCHEM_CACTVS_TAUTO_COUNT>
1

> <PUBCHEM_COORDINATE_TYPE>
1
5
255

$$$$
5281167
  -OEChem-02201912152D

 19 18  0     0  0  0  0  0  0999 V2000
    6.3301   -0.1900    0.0000 O   0  0  0  0  0  0  0  0  0  0  0  0
    4.5981   -0.1900    0.0000 C   0  0  0  0  0  0  0  0  0  0  0  0
    2.8660    0.8100    0.0000 C   0  0  0  0  0  0  0  0  0  0  0  0
    3.7320   -0.6900    0.0000 C   0  0  0  0  0  0  0  0  0  0  0  0
    2.8660   -0.1900    0.0000 C   0  0  0  0  0  0  0  0  0  0  0  0
    5.4641   -0.6900    0.0000 C   0  0  0  0  0  0  0  0  0  0  0  0
    2.0000    1.3100    0.0000 C   0  0  0  0  0  0  0  0  0  0  0  0
    4.9966    0.2849    0.0000 H   0  0  0  0  0  0  0  0  0  0  0  0
    4.1996    0.2849    0.0000 H   0  0  0  0  0  0  0  0  0  0  0  0
    3.4766    0.7023    0.0000 H   0  0  0  0  0  0  0  0  0  0  0  0
    3.0781    1.3926    0.0000 H   0  0  0  0  0  0  0  0  0  0  0  0
    3.7320   -1.3100    0.0000 H   0  0  0  0  0  0  0  0  0  0  0  0
    2.3291   -0.5000    0.0000 H   0  0  0  0  0  0  0  0  0  0  0  0
    5.0656   -1.1650    0.0000 H   0  0  0  0  0  0  0  0  0  0  0  0
    5.8626   -1.1650    0.0000 H   0  0  0  0  0  0  0  0  0  0  0  0
    2.3100    1.8469    0.0000 H   0  0  0  0  0  0  0  0  0  0  0  0
    1.4631    1.6200    0.0000 H   0  0  0  0  0  0  0  0  0  0  0  0
    1.6900    0.7731    0.0000 H   0  0  0  0  0  0  0  0  0  0  0  0
    6.8671   -0.5000    0.0000 H   0  0  0  0  0  0  0  0  0  0  0  0
  1  6  1  0  0  0  0
  1 19  1  0  0  0  0
  2  4  1  0  0  0  0
  2  6  1  0  0  0  0
  2  8  1  0  0  0  0
  2  9  1  0  0  0  0
  3  5  1  0  0  0  0
  3  7  1  0  0  0  0
  3 10  1  0  0  0  0
  3 11  1  0  0  0  0
  4  5  2  0  0  0  0
  4 12  1  0  0  0  0
  5 13  1  0  0  0  0
  6 14  1  0  0  0  0
  6 15  1  0  0  0  0
  7 16  1  0  0  0  0
  7 17  1  0  0  0  0
  7 18  1  0  0  0  0
M  END
> <PUBCHEM_COMPOUND_CID>
5281167

> <PUBCHEM_COMPOUND_CANONICALIZED>
1

> <PUBCHEM_CACTVS_COMPLEXITY>
48.1

> <PUBCHEM_CACTVS_HBOND_ACCEPTOR>
1

> <PUBCHEM_CACTVS_HBOND_DONOR>
1

> <PUBCHEM_CACTVS_ROTATABLE_BOND>
3

> <PUBCHEM_CACTVS_SUBSKEYS>
AAADccBgIAAAAAAAAAAAAAAAAAAAAAAAAAAAAAAAAAAAAAAAAAAAGgAACAAACACggAICAAAAAgCAACBCAAAAAAAgAAAICAAAAAgAEAAAAQAAQAAAQAAIAAIAAAAAAAAAAAAAAAAAAAAAAAAAAAAAAAAAAA==

> <PUBCHEM_IUPAC_OPENEYE_NAME>
(~{Z})-hex-3-en-1-ol

> <PUBCHEM_IUPAC_CAS_NAME>
(~{Z})-3-hexen-1-ol

> <PUBCHEM_IUPAC_NAME>
(~{Z})-hex-3-en-1-ol

> <PUBCHEM_IUPAC_SYSTEMATIC_NAME>
(~{Z})-hex-3-en-1-ol

> <PUBCHEM_IUPAC_TRADITIONAL_NAME>
(~{Z})-hex-3-en-1-ol

> <PUBCHEM_IUPAC_INCHI>
InChI=1S/C6H12O/c1-2-3-4-5-6-7/h3-4,7H,2,5-6H2,1H3/b4-3-

> <PUBCHEM_IUPAC_INCHIKEY>
UFLHIIWVXFIJGU-ARJAWSKDSA-N

> <PUBCHEM_XLOGP3_AA>
1.3

> <PUBCHEM_EXACT_MASS>
100.089

> <PUBCHEM_MOLECULAR_FORMULA>
C6H12O

> <PUBCHEM_MOLECULAR_WEIGHT>
100.161

> <PUBCHEM_OPENEYE_CAN_SMILES>
CCC=CCCO

> <PUBCHEM_OPENEYE_ISO_SMILES>
CC/C=C\CCO

> <PUBCHEM_CACTVS_TPSA>
20.2

> <PUBCHEM_MONOISOTOPIC_WEIGHT>
100.089

> <PUBCHEM_TOTAL_CHARGE>
0

> <PUBCHEM_HEAVY_ATOM_COUNT>
7

> <PUBCHEM_ATOM_DEF_STEREO_COUNT>
0

> <PUBCHEM_ATOM_UDEF_STEREO_COUNT>
0

> <PUBCHEM_BOND_DEF_STEREO_COUNT>
1

> <PUBCHEM_BOND_UDEF_STEREO_COUNT>
0

> <PUBCHEM_ISOTOPIC_ATOM_COUNT>
0

> <PUBCHEM_COMPONENT_COUNT>
1

> <PUBCHEM_CACTVS_TAUTO_COUNT>
1

> <PUBCHEM_COORDINATE_TYPE>
1
5
255

$$$$
1549018
  -OEChem-02201912152D

 28 28  0     0  0  0  0  0  0999 V2000
    2.0000   -1.5094    0.0000 O   0  0  0  0  0  0  0  0  0  0  0  0
    4.2601   -2.7694    0.0000 C   0  0  0  0  0  0  0  0  0  0  0  0
    4.5691   -1.8184    0.0000 C   0  0  0  0  0  0  0  0  0  0  0  0
    3.7601   -1.2306    0.0000 C   0  0  0  0  0  0  0  0  0  0  0  0
    3.2601   -2.7694    0.0000 C   0  0  0  0  0  0  0  0  0  0  0  0
    2.9511   -1.8184    0.0000 C   0  0  0  0  0  0  0  0  0  0  0  0
    3.7601   -0.2306    0.0000 C   0  0  0  0  0  0  0  0  0  0  0  0
    5.5202   -1.5094    0.0000 C   0  0  0  0  0  0  0  0  0  0  0  0
    4.6261    0.2694    0.0000 C   0  0  0  0  0  0  0  0  0  0  0  0
    4.6261    1.2694    0.0000 C   0  0  0  0  0  0  0  0  0  0  0  0
    3.7601    1.7694    0.0000 C   0  0  0  0  0  0  0  0  0  0  0  0
    3.7601    2.7694    0.0000 C   0  0  0  0  0  0  0  0  0  0  0  0
    4.1953   -3.3860    0.0000 H   0  0  0  0  0  0  0  0  0  0  0  0
    4.8665   -2.8983    0.0000 H   0  0  0  0  0  0  0  0  0  0  0  0
    2.6536   -2.8983    0.0000 H   0  0  0  0  0  0  0  0  0  0  0  0
    3.3249   -3.3860    0.0000 H   0  0  0  0  0  0  0  0  0  0  0  0
    3.5480    0.3520    0.0000 H   0  0  0  0  0  0  0  0  0  0  0  0
    3.1495   -0.3382    0.0000 H   0  0  0  0  0  0  0  0  0  0  0  0
    5.7117   -2.0990    0.0000 H   0  0  0  0  0  0  0  0  0  0  0  0
    6.1098   -1.3178    0.0000 H   0  0  0  0  0  0  0  0  0  0  0  0
    5.3286   -0.9197    0.0000 H   0  0  0  0  0  0  0  0  0  0  0  0
    5.1630   -0.0406    0.0000 H   0  0  0  0  0  0  0  0  0  0  0  0
    5.1630    1.5794    0.0000 H   0  0  0  0  0  0  0  0  0  0  0  0
    3.1495    1.8771    0.0000 H   0  0  0  0  0  0  0  0  0  0  0  0
    3.5480    1.1868    0.0000 H   0  0  0  0  0  0  0  0  0  0  0  0
    4.3801    2.7694    0.0000 H   0  0  0  0  0  0  0  0  0  0  0  0
    3.7601    3.3894    0.0000 H   0  0  0  0  0  0  0  0  0  0  0  0
    3.1401    2.7694    0.0000 H   0  0  0  0  0  0  0  0  0  0  0  0
  1  6  2  0  0  0  0
  2  3  1  0  0  0  0
  2  5  1  0  0  0  0
  2 13  1  0  0  0  0
  2 14  1  0  0  0  0
  3  4  2  0  0  0  0
  3  8  1  0  0  0  0
  4  6  1  0  0  0  0
  4  7  1  0  0  0  0
  5  6  1  0  0  0  0
  5 15  1  0  0  0  0
  5 16  1  0  0  0  0
  7  9  1  0  0  0  0
  7 17  1  0  0  0  0
  7 18  1  0  0  0  0
  8 19  1  0  0  0  0
  8 20  1  0  0  0  0
  8 21  1  0  0  0  0
  9 10  2  0  0  0  0
  9 22  1  0  0  0  0
 10 11  1  0  0  0  0
 10 23  1  0  0  0  0
 11 12  1  0  0  0  0
 11 24  1  0  0  0  0
 11 25  1  0  0  0  0
 12 26  1  0  0  0  0
 12 27  1  0  0  0  0
 12 28  1  0  0  0  0
M  END
> <PUBCHEM_COMPOUND_CID>
1549018

> <PUBCHEM_COMPOUND_CANONICALIZED>
1

> <PUBCHEM_CACTVS_COMPLEXITY>
233

> <PUBCHEM_CACTVS_HBOND_ACCEPTOR>
1

> <PUBCHEM_CACTVS_HBOND_DONOR>
0

> <PUBCHEM_CACTVS_ROTATABLE_BOND>
3

> <PUBCHEM_CACTVS_SUBSKEYS>
AAADceBwIAAAAAAAAAAAAAAAAAAAAQAAAAAAAAAAAAAAAAAAAAAAGgAAAAAADASAgAACAAAAAACIAqBSAAAAAAAgAAAICAEAAEgAABIAAQAAAAAAgAAIAQMIgIAAAAAAAAAAAAAAAAAAAAAAAAAAAAAAAA==

> <PUBCHEM_IUPAC_OPENEYE_NAME>
3-methyl-2-[(~{Z})-pent-2-enyl]cyclopent-2-en-1-one

> <PUBCHEM_IUPAC_CAS_NAME>
3-methyl-2-[(~{Z})-pent-2-enyl]-1-cyclopent-2-enone

> <PUBCHEM_IUPAC_NAME>
3-methyl-2-[(~{Z})-pent-2-enyl]cyclopent-2-en-1-one

> <PUBCHEM_IUPAC_SYSTEMATIC_NAME>
3-methyl-2-[(~{Z})-pent-2-enyl]cyclopent-2-en-1-one

> <PUBCHEM_IUPAC_TRADITIONAL_NAME>
3-methyl-2-[(~{Z})-pent-2-enyl]cyclopent-2-en-1-one

> <PUBCHEM_IUPAC_INCHI>
InChI=1S/C11H16O/c1-3-4-5-6-10-9(2)7-8-11(10)12/h4-5H,3,6-8H2,1-2H3/b5-4-

> <PUBCHEM_IUPAC_INCHIKEY>
XMLSXPIVAXONDL-PLNGDYQASA-N

> <PUBCHEM_XLOGP3_AA>
2.2

> <PUBCHEM_EXACT_MASS>
164.12

> <PUBCHEM_MOLECULAR_FORMULA>
C11H16O

> <PUBCHEM_MOLECULAR_WEIGHT>
164.248

> <PUBCHEM_OPENEYE_CAN_SMILES>
CCC=CCC1=C(CCC1=O)C

> <PUBCHEM_OPENEYE_ISO_SMILES>
CC/C=C\CC1=C(CCC1=O)C

> <PUBCHEM_CACTVS_TPSA>
17.1

> <PUBCHEM_MONOISOTOPIC_WEIGHT>
164.12

> <PUBCHEM_TOTAL_CHARGE>
0

> <PUBCHEM_HEAVY_ATOM_COUNT>
12

> <PUBCHEM_ATOM_DEF_STEREO_COUNT>
0

> <PUBCHEM_ATOM_UDEF_STEREO_COUNT>
0

> <PUBCHEM_BOND_DEF_STEREO_COUNT>
1

> <PUBCHEM_BOND_UDEF_STEREO_COUNT>
0

> <PUBCHEM_ISOTOPIC_ATOM_COUNT>
0

> <PUBCHEM_COMPONENT_COUNT>
1

> <PUBCHEM_CACTVS_TAUTO_COUNT>
10

> <PUBCHEM_COORDINATE_TYPE>
1
5
255

$$$$
9862
  -OEChem-02201912152D

 23 22  0     0  0  0  0  0  0999 V2000
    2.8660   -0.7500    0.0000 O   0  0  0  0  0  0  0  0  0  0  0  0
    4.5981    0.2500    0.0000 C   0  0  0  0  0  0  0  0  0  0  0  0
    3.7320    0.7500    0.0000 C   0  0  0  0  0  0  0  0  0  0  0  0
    5.4641    0.7500    0.0000 C   0  0  0  0  0  0  0  0  0  0  0  0
    6.3301    0.2500    0.0000 C   0  0  0  0  0  0  0  0  0  0  0  0
    2.8660    0.2500    0.0000 C   0  0  0  0  0  0  0  0  0  0  0  0
    7.1962    0.7500    0.0000 C   0  0  0  0  0  0  0  0  0  0  0  0
    6.3301   -0.7500    0.0000 C   0  0  0  0  0  0  0  0  0  0  0  0
    2.0000    0.7500    0.0000 C   0  0  0  0  0  0  0  0  0  0  0  0
    4.1996   -0.2249    0.0000 H   0  0  0  0  0  0  0  0  0  0  0  0
    4.9966   -0.2249    0.0000 H   0  0  0  0  0  0  0  0  0  0  0  0
    4.1306    1.2250    0.0000 H   0  0  0  0  0  0  0  0  0  0  0  0
    3.3335    1.2250    0.0000 H   0  0  0  0  0  0  0  0  0  0  0  0
    5.4641    1.3700    0.0000 H   0  0  0  0  0  0  0  0  0  0  0  0
    7.5062    0.2131    0.0000 H   0  0  0  0  0  0  0  0  0  0  0  0
    7.7331    1.0600    0.0000 H   0  0  0  0  0  0  0  0  0  0  0  0
    6.8862    1.2869    0.0000 H   0  0  0  0  0  0  0  0  0  0  0  0
    5.7101   -0.7500    0.0000 H   0  0  0  0  0  0  0  0  0  0  0  0
    6.3301   -1.3700    0.0000 H   0  0  0  0  0  0  0  0  0  0  0  0
    6.9501   -0.7500    0.0000 H   0  0  0  0  0  0  0  0  0  0  0  0
    2.3100    1.2869    0.0000 H   0  0  0  0  0  0  0  0  0  0  0  0
    1.4631    1.0600    0.0000 H   0  0  0  0  0  0  0  0  0  0  0  0
    1.6900    0.2131    0.0000 H   0  0  0  0  0  0  0  0  0  0  0  0
  1  6  2  0  0  0  0
  2  3  1  0  0  0  0
  2  4  1  0  0  0  0
  2 10  1  0  0  0  0
  2 11  1  0  0  0  0
  3  6  1  0  0  0  0
  3 12  1  0  0  0  0
  3 13  1  0  0  0  0
  4  5  2  0  0  0  0
  4 14  1  0  0  0  0
  5  7  1  0  0  0  0
  5  8  1  0  0  0  0
  6  9  1  0  0  0  0
  7 15  1  0  0  0  0
  7 16  1  0  0  0  0
  7 17  1  0  0  0  0
  8 18  1  0  0  0  0
  8 19  1  0  0  0  0
  8 20  1  0  0  0  0
  9 21  1  0  0  0  0
  9 22  1  0  0  0  0
  9 23  1  0  0  0  0
M  END
> <PUBCHEM_COMPOUND_CID>
9862

> <PUBCHEM_COMPOUND_CANONICALIZED>
1

> <PUBCHEM_CACTVS_COMPLEXITY>
119

> <PUBCHEM_CACTVS_HBOND_ACCEPTOR>
1

> <PUBCHEM_CACTVS_HBOND_DONOR>
0

> <PUBCHEM_CACTVS_ROTATABLE_BOND>
3

> <PUBCHEM_CACTVS_SUBSKEYS>
AAADccBwIAAAAAAAAAAAAAAAAAAAAAAAAAAAAAAAAAAAAAAAAAAAGgAAAAAADASAgAACAAAAAACIAqBSAAAAAAAgAAAACAEAAAgAABIAAQAAAAAAgAAIAAIAAAAAAAAAAAAAAAAAAAAAAAAAAAAAAAAAAA==

> <PUBCHEM_IUPAC_OPENEYE_NAME>
6-methylhept-5-en-2-one

> <PUBCHEM_IUPAC_CAS_NAME>
6-methyl-5-hepten-2-one

> <PUBCHEM_IUPAC_NAME>
6-methylhept-5-en-2-one

> <PUBCHEM_IUPAC_SYSTEMATIC_NAME>
6-methylhept-5-en-2-one

> <PUBCHEM_IUPAC_TRADITIONAL_NAME>
6-methylhept-5-en-2-one

> <PUBCHEM_IUPAC_INCHI>
InChI=1S/C8H14O/c1-7(2)5-4-6-8(3)9/h5H,4,6H2,1-3H3

> <PUBCHEM_IUPAC_INCHIKEY>
UHEPJGULSIKKTP-UHFFFAOYSA-N

> <PUBCHEM_XLOGP3>
1.9

> <PUBCHEM_EXACT_MASS>
126.104

> <PUBCHEM_MOLECULAR_FORMULA>
C8H14O

> <PUBCHEM_MOLECULAR_WEIGHT>
126.199

> <PUBCHEM_OPENEYE_CAN_SMILES>
CC(=CCCC(=O)C)C

> <PUBCHEM_OPENEYE_ISO_SMILES>
CC(=CCCC(=O)C)C

> <PUBCHEM_CACTVS_TPSA>
17.1

> <PUBCHEM_MONOISOTOPIC_WEIGHT>
126.104

> <PUBCHEM_TOTAL_CHARGE>
0

> <PUBCHEM_HEAVY_ATOM_COUNT>
9

> <PUBCHEM_ATOM_DEF_STEREO_COUNT>
0

> <PUBCHEM_ATOM_UDEF_STEREO_COUNT>
0

> <PUBCHEM_BOND_DEF_STEREO_COUNT>
0

> <PUBCHEM_BOND_UDEF_STEREO_COUNT>
0

> <PUBCHEM_ISOTOPIC_ATOM_COUNT>
0

> <PUBCHEM_COMPONENT_COUNT>
1

> <PUBCHEM_CACTVS_TAUTO_COUNT>
-1

> <PUBCHEM_COORDINATE_TYPE>
1
5
255

$$$$
6443227
  -OEChem-02201912152D

 42 41  0     0  0  0  0  0  0999 V2000
    5.4641    0.4400    0.0000 C   0  0  0  0  0  0  0  0  0  0  0  0
    6.3301   -0.0600    0.0000 C   0  0  0  0  0  0  0  0  0  0  0  0
    8.0622   -0.0600    0.0000 C   0  0  0  0  0  0  0  0  0  0  0  0
    4.5981   -0.0600    0.0000 C   0  0  0  0  0  0  0  0  0  0  0  0
    8.9282    0.4400    0.0000 C   0  0  0  0  0  0  0  0  0  0  0  0
    7.1962    0.4400    0.0000 C   0  0  0  0  0  0  0  0  0  0  0  0
    9.7942   -0.0600    0.0000 C   0  0  0  0  0  0  0  0  0  0  0  0
    6.3301   -1.0600    0.0000 C   0  0  0  0  0  0  0  0  0  0  0  0
    3.7320    0.4400    0.0000 C   0  0  0  0  0  0  0  0  0  0  0  0
    2.8660   -0.0600    0.0000 C   0  0  0  0  0  0  0  0  0  0  0  0
    9.7942   -1.0600    0.0000 C   0  0  0  0  0  0  0  0  0  0  0  0
   10.6603    0.4400    0.0000 C   0  0  0  0  0  0  0  0  0  0  0  0
    2.0000    0.4400    0.0000 C   0  0  0  0  0  0  0  0  0  0  0  0
    2.8660   -1.0600    0.0000 C   0  0  0  0  0  0  0  0  0  0  0  0
   11.5263   -0.0600    0.0000 C   0  0  0  0  0  0  0  0  0  0  0  0
   12.3923    0.4400    0.0000 C   0  0  0  0  0  0  0  0  0  0  0  0
    5.8626    0.9149    0.0000 H   0  0  0  0  0  0  0  0  0  0  0  0
    5.0656    0.9149    0.0000 H   0  0  0  0  0  0  0  0  0  0  0  0
    7.6636   -0.5349    0.0000 H   0  0  0  0  0  0  0  0  0  0  0  0
    8.4607   -0.5349    0.0000 H   0  0  0  0  0  0  0  0  0  0  0  0
    4.1996   -0.5349    0.0000 H   0  0  0  0  0  0  0  0  0  0  0  0
    4.9966   -0.5349    0.0000 H   0  0  0  0  0  0  0  0  0  0  0  0
    9.3267    0.9149    0.0000 H   0  0  0  0  0  0  0  0  0  0  0  0
    8.5297    0.9149    0.0000 H   0  0  0  0  0  0  0  0  0  0  0  0
    7.1962    1.0600    0.0000 H   0  0  0  0  0  0  0  0  0  0  0  0
    5.7101   -1.0600    0.0000 H   0  0  0  0  0  0  0  0  0  0  0  0
    6.3301   -1.6800    0.0000 H   0  0  0  0  0  0  0  0  0  0  0  0
    6.9501   -1.0600    0.0000 H   0  0  0  0  0  0  0  0  0  0  0  0
    3.7320    1.0600    0.0000 H   0  0  0  0  0  0  0  0  0  0  0  0
    9.1742   -1.0600    0.0000 H   0  0  0  0  0  0  0  0  0  0  0  0
    9.7942   -1.6800    0.0000 H   0  0  0  0  0  0  0  0  0  0  0  0
   10.4142   -1.0600    0.0000 H   0  0  0  0  0  0  0  0  0  0  0  0
   10.6603    1.0600    0.0000 H   0  0  0  0  0  0  0  0  0  0  0  0
    2.3100    0.9769    0.0000 H   0  0  0  0  0  0  0  0  0  0  0  0
    1.4631    0.7500    0.0000 H   0  0  0  0  0  0  0  0  0  0  0  0
    1.6900   -0.0969    0.0000 H   0  0  0  0  0  0  0  0  0  0  0  0
    2.2460   -1.0600    0.0000 H   0  0  0  0  0  0  0  0  0  0  0  0
    2.8660   -1.6800    0.0000 H   0  0  0  0  0  0  0  0  0  0  0  0
    3.4860   -1.0600    0.0000 H   0  0  0  0  0  0  0  0  0  0  0  0
   11.5263   -0.6800    0.0000 H   0  0  0  0  0  0  0  0  0  0  0  0
   12.9292    0.1300    0.0000 H   0  0  0  0  0  0  0  0  0  0  0  0
   12.3923    1.0600    0.0000 H   0  0  0  0  0  0  0  0  0  0  0  0
  1  2  1  0  0  0  0
  1  4  1  0  0  0  0
  1 17  1  0  0  0  0
  1 18  1  0  0  0  0
  2  6  2  0  0  0  0
  2  8  1  0  0  0  0
  3  5  1  0  0  0  0
  3  6  1  0  0  0  0
  3 19  1  0  0  0  0
  3 20  1  0  0  0  0
  4  9  1  0  0  0  0
  4 21  1  0  0  0  0
  4 22  1  0  0  0  0
  5  7  1  0  0  0  0
  5 23  1  0  0  0  0
  5 24  1  0  0  0  0
  6 25  1  0  0  0  0
  7 11  1  0  0  0  0
  7 12  2  0  0  0  0
  8 26  1  0  0  0  0
  8 27  1  0  0  0  0
  8 28  1  0  0  0  0
  9 10  2  0  0  0  0
  9 29  1  0  0  0  0
 10 13  1  0  0  0  0
 10 14  1  0  0  0  0
 11 30  1  0  0  0  0
 11 31  1  0  0  0  0
 11 32  1  0  0  0  0
 12 15  1  0  0  0  0
 12 33  1  0  0  0  0
 13 34  1  0  0  0  0
 13 35  1  0  0  0  0
 13 36  1  0  0  0  0
 14 37  1  0  0  0  0
 14 38  1  0  0  0  0
 14 39  1  0  0  0  0
 15 16  2  0  0  0  0
 15 40  1  0  0  0  0
 16 41  1  0  0  0  0
 16 42  1  0  0  0  0
M  END
> <PUBCHEM_COMPOUND_CID>
6443227

> <PUBCHEM_COMPOUND_CANONICALIZED>
1

> <PUBCHEM_CACTVS_COMPLEXITY>
283

> <PUBCHEM_CACTVS_HBOND_ACCEPTOR>
0

> <PUBCHEM_CACTVS_HBOND_DONOR>
0

> <PUBCHEM_CACTVS_ROTATABLE_BOND>
7

> <PUBCHEM_CACTVS_SUBSKEYS>
AAADceB4AAAAAAAAAAAAAAAAAAAAAAAAAAAAAAAAAAAAAAAAAAAAGAAAAAAADACAAAACAAAAAACAAiBCAAAAAAAgAAAICAAAAAgIAAIAAQAAAAAAgAAIgAIAAAAAAAAAAAAAAAAAAAAAAAAAAAAAAAAAAA==

> <PUBCHEM_IUPAC_OPENEYE_NAME>
(3~{E},7~{E})-4,8,12-trimethyltrideca-1,3,7,11-tetraene

> <PUBCHEM_IUPAC_CAS_NAME>
(3~{E},7~{E})-4,8,12-trimethyltrideca-1,3,7,11-tetraene

> <PUBCHEM_IUPAC_NAME>
(3~{E},7~{E})-4,8,12-trimethyltrideca-1,3,7,11-tetraene

> <PUBCHEM_IUPAC_SYSTEMATIC_NAME>
(3~{E},7~{E})-4,8,12-trimethyltrideca-1,3,7,11-tetraene

> <PUBCHEM_IUPAC_TRADITIONAL_NAME>
(3~{E},7~{E})-4,8,12-trimethyltrideca-1,3,7,11-tetraene

> <PUBCHEM_IUPAC_INCHI>
InChI=1S/C16H26/c1-6-9-15(4)12-8-13-16(5)11-7-10-14(2)3/h6,9-10,13H,1,7-8,11-12H2,2-5H3/b15-9+,16-13+

> <PUBCHEM_IUPAC_INCHIKEY>
CWLVBFJCJXHUCF-RNPYNJAESA-N

> <PUBCHEM_XLOGP3_AA>
6.4

> <PUBCHEM_EXACT_MASS>
218.203

> <PUBCHEM_MOLECULAR_FORMULA>
C16H26

> <PUBCHEM_MOLECULAR_WEIGHT>
218.384

> <PUBCHEM_OPENEYE_CAN_SMILES>
CC(=CCCC(=CCCC(=CC=C)C)C)C

> <PUBCHEM_OPENEYE_ISO_SMILES>
CC(=CCC/C(=C/CC/C(=C/C=C)/C)/C)C

> <PUBCHEM_CACTVS_TPSA>
0

> <PUBCHEM_MONOISOTOPIC_WEIGHT>
218.203

> <PUBCHEM_TOTAL_CHARGE>
0

> <PUBCHEM_HEAVY_ATOM_COUNT>
16

> <PUBCHEM_ATOM_DEF_STEREO_COUNT>
0

> <PUBCHEM_ATOM_UDEF_STEREO_COUNT>
0

> <PUBCHEM_BOND_DEF_STEREO_COUNT>
2

> <PUBCHEM_BOND_UDEF_STEREO_COUNT>
0

> <PUBCHEM_ISOTOPIC_ATOM_COUNT>
0

> <PUBCHEM_COMPONENT_COUNT>
1

> <PUBCHEM_CACTVS_TAUTO_COUNT>
1

> <PUBCHEM_COORDINATE_TYPE>
1
5
255

$$$$
93231
  -OEChem-02201912152D

 25 24  0     0  0  0  0  0  0999 V2000
    6.3301   -1.2500    0.0000 O   0  0  0  0  0  0  0  0  0  0  0  0
    5.4641    0.2500    0.0000 C   0  0  0  0  0  0  0  0  0  0  0  0
    4.5981   -0.2500    0.0000 C   0  0  0  0  0  0  0  0  0  0  0  0
    6.3301   -0.2500    0.0000 C   0  0  0  0  0  0  0  0  0  0  0  0
    3.7320    0.2500    0.0000 C   0  0  0  0  0  0  0  0  0  0  0  0
    7.1962    0.2500    0.0000 C   0  0  0  0  0  0  0  0  0  0  0  0
    8.0622   -0.2500    0.0000 C   0  0  0  0  0  0  0  0  0  0  0  0
    2.8660   -0.2500    0.0000 C   0  0  0  0  0  0  0  0  0  0  0  0
    3.7320    1.2500    0.0000 C   0  0  0  0  0  0  0  0  0  0  0  0
    7.1962    1.2500    0.0000 C   0  0  0  0  0  0  0  0  0  0  0  0
    2.0000    0.2500    0.0000 C   0  0  0  0  0  0  0  0  0  0  0  0
    5.8626    0.7249    0.0000 H   0  0  0  0  0  0  0  0  0  0  0  0
    5.0656    0.7249    0.0000 H   0  0  0  0  0  0  0  0  0  0  0  0
    4.1996   -0.7249    0.0000 H   0  0  0  0  0  0  0  0  0  0  0  0
    4.9966   -0.7249    0.0000 H   0  0  0  0  0  0  0  0  0  0  0  0
    7.7522   -0.7869    0.0000 H   0  0  0  0  0  0  0  0  0  0  0  0
    8.5991   -0.5600    0.0000 H   0  0  0  0  0  0  0  0  0  0  0  0
    8.3722    0.2869    0.0000 H   0  0  0  0  0  0  0  0  0  0  0  0
    2.8660   -0.8700    0.0000 H   0  0  0  0  0  0  0  0  0  0  0  0
    4.2690    1.5600    0.0000 H   0  0  0  0  0  0  0  0  0  0  0  0
    3.1951    1.5600    0.0000 H   0  0  0  0  0  0  0  0  0  0  0  0
    7.7331    1.5600    0.0000 H   0  0  0  0  0  0  0  0  0  0  0  0
    6.6592    1.5600    0.0000 H   0  0  0  0  0  0  0  0  0  0  0  0
    2.0000    0.8700    0.0000 H   0  0  0  0  0  0  0  0  0  0  0  0
    1.4631   -0.0600    0.0000 H   0  0  0  0  0  0  0  0  0  0  0  0
  1  4  2  0  0  0  0
  2  3  1  0  0  0  0
  2  4  1  0  0  0  0
  2 12  1  0  0  0  0
  2 13  1  0  0  0  0
  3  5  1  0  0  0  0
  3 14  1  0  0  0  0
  3 15  1  0  0  0  0
  4  6  1  0  0  0  0
  5  8  1  0  0  0  0
  5  9  2  0  0  0  0
  6  7  1  0  0  0  0
  6 10  2  0  0  0  0
  7 16  1  0  0  0  0
  7 17  1  0  0  0  0
  7 18  1  0  0  0  0
  8 11  2  0  0  0  0
  8 19  1  0  0  0  0
  9 20  1  0  0  0  0
  9 21  1  0  0  0  0
 10 22  1  0  0  0  0
 10 23  1  0  0  0  0
 11 24  1  0  0  0  0
 11 25  1  0  0  0  0
M  END
> <PUBCHEM_COMPOUND_CID>
93231

> <PUBCHEM_COMPOUND_CANONICALIZED>
1

> <PUBCHEM_CACTVS_COMPLEXITY>
199

> <PUBCHEM_CACTVS_HBOND_ACCEPTOR>
1

> <PUBCHEM_CACTVS_HBOND_DONOR>
0

> <PUBCHEM_CACTVS_ROTATABLE_BOND>
5

> <PUBCHEM_CACTVS_SUBSKEYS>
AAADccBwIAAAAAAAAAAAAAAAAAAAAAAAAAAAAAAAAAAAAAAAAAAAGgAAAAAADASAgAACAAAAAACIAqBSAAAAAAAgAAAIAAEAAEgIABIAAQAAAAAAgAAAAIEIgAAAAAAAAAAAAAAAAAAAAAAAAAAAAAAAAA==

> <PUBCHEM_IUPAC_OPENEYE_NAME>
2-methyl-6-methylene-octa-1,7-dien-3-one

> <PUBCHEM_IUPAC_CAS_NAME>
2-methyl-6-methylene-3-octa-1,7-dienone

> <PUBCHEM_IUPAC_NAME>
2-methyl-6-methylideneocta-1,7-dien-3-one

> <PUBCHEM_IUPAC_SYSTEMATIC_NAME>
2-methyl-6-methylidene-octa-1,7-dien-3-one

> <PUBCHEM_IUPAC_TRADITIONAL_NAME>
2-methyl-6-methylene-octa-1,7-dien-3-one

> <PUBCHEM_IUPAC_INCHI>
InChI=1S/C10H14O/c1-5-9(4)6-7-10(11)8(2)3/h5H,1-2,4,6-7H2,3H3

> <PUBCHEM_IUPAC_INCHIKEY>
YZWOKWMEQQCMRN-UHFFFAOYSA-N

> <PUBCHEM_XLOGP3_AA>
3

> <PUBCHEM_EXACT_MASS>
150.104

> <PUBCHEM_MOLECULAR_FORMULA>
C10H14O

> <PUBCHEM_MOLECULAR_WEIGHT>
150.221

> <PUBCHEM_OPENEYE_CAN_SMILES>
CC(=C)C(=O)CCC(=C)C=C

> <PUBCHEM_OPENEYE_ISO_SMILES>
CC(=C)C(=O)CCC(=C)C=C

> <PUBCHEM_CACTVS_TPSA>
17.1

> <PUBCHEM_MONOISOTOPIC_WEIGHT>
150.104

> <PUBCHEM_TOTAL_CHARGE>
0

> <PUBCHEM_HEAVY_ATOM_COUNT>
11

> <PUBCHEM_ATOM_DEF_STEREO_COUNT>
0

> <PUBCHEM_ATOM_UDEF_STEREO_COUNT>
0

> <PUBCHEM_BOND_DEF_STEREO_COUNT>
0

> <PUBCHEM_BOND_UDEF_STEREO_COUNT>
0

> <PUBCHEM_ISOTOPIC_ATOM_COUNT>
0

> <PUBCHEM_COMPONENT_COUNT>
1

> <PUBCHEM_CACTVS_TAUTO_COUNT>
2

> <PUBCHEM_COORDINATE_TYPE>
1
5
255

$$$$
26049
  -OEChem-02201912152D

 26 27  0     1  0  0  0  0  0999 V2000
    5.4646   -0.0000    0.0000 C   0  0  0  0  0  0  0  0  0  0  0  0
    4.5981    0.5000    0.0000 C   0  0  3  0  0  0  0  0  0  0  0  0
    4.5981   -0.5000    0.0000 C   0  0  3  0  0  0  0  0  0  0  0  0
    3.7320    1.0000    0.0000 C   0  0  0  0  0  0  0  0  0  0  0  0
    3.7320   -1.0000    0.0000 C   0  0  0  0  0  0  0  0  0  0  0  0
    5.9646   -0.8660    0.0000 C   0  0  0  0  0  0  0  0  0  0  0  0
    5.9646    0.8660    0.0000 C   0  0  0  0  0  0  0  0  0  0  0  0
    2.8660    0.5000    0.0000 C   0  0  0  0  0  0  0  0  0  0  0  0
    2.8660   -0.5000    0.0000 C   0  0  0  0  0  0  0  0  0  0  0  0
    2.0000    1.0000    0.0000 C   0  0  0  0  0  0  0  0  0  0  0  0
    4.9080    1.0370    0.0000 H   0  0  0  0  0  0  0  0  0  0  0  0
    4.9080   -1.0370    0.0000 H   0  0  0  0  0  0  0  0  0  0  0  0
    4.1306    1.4750    0.0000 H   0  0  0  0  0  0  0  0  0  0  0  0
    3.3335    1.4750    0.0000 H   0  0  0  0  0  0  0  0  0  0  0  0
    3.3335   -1.4750    0.0000 H   0  0  0  0  0  0  0  0  0  0  0  0
    4.1306   -1.4750    0.0000 H   0  0  0  0  0  0  0  0  0  0  0  0
    5.4277   -1.1760    0.0000 H   0  0  0  0  0  0  0  0  0  0  0  0
    6.2746   -1.4030    0.0000 H   0  0  0  0  0  0  0  0  0  0  0  0
    6.5016   -0.5560    0.0000 H   0  0  0  0  0  0  0  0  0  0  0  0
    6.5016    0.5560    0.0000 H   0  0  0  0  0  0  0  0  0  0  0  0
    6.2746    1.4030    0.0000 H   0  0  0  0  0  0  0  0  0  0  0  0
    5.4277    1.1760    0.0000 H   0  0  0  0  0  0  0  0  0  0  0  0
    2.3291   -0.8100    0.0000 H   0  0  0  0  0  0  0  0  0  0  0  0
    2.3100    1.5369    0.0000 H   0  0  0  0  0  0  0  0  0  0  0  0
    1.4631    1.3100    0.0000 H   0  0  0  0  0  0  0  0  0  0  0  0
    1.6900    0.4631    0.0000 H   0  0  0  0  0  0  0  0  0  0  0  0
  1  2  1  0  0  0  0
  1  3  1  0  0  0  0
  1  6  1  0  0  0  0
  1  7  1  0  0  0  0
  2  3  1  0  0  0  0
  2  4  1  0  0  0  0
  2 11  1  0  0  0  0
  3  5  1  0  0  0  0
  3 12  1  0  0  0  0
  4  8  1  0  0  0  0
  4 13  1  0  0  0  0
  4 14  1  0  0  0  0
  5  9  1  0  0  0  0
  5 15  1  0  0  0  0
  5 16  1  0  0  0  0
  6 17  1  0  0  0  0
  6 18  1  0  0  0  0
  6 19  1  0  0  0  0
  7 20  1  0  0  0  0
  7 21  1  0  0  0  0
  7 22  1  0  0  0  0
  8  9  2  0  0  0  0
  8 10  1  0  0  0  0
  9 23  1  0  0  0  0
 10 24  1  0  0  0  0
 10 25  1  0  0  0  0
 10 26  1  0  0  0  0
M  END
> <PUBCHEM_COMPOUND_CID>
26049

> <PUBCHEM_COMPOUND_CANONICALIZED>
1

> <PUBCHEM_CACTVS_COMPLEXITY>
186

> <PUBCHEM_CACTVS_HBOND_ACCEPTOR>
0

> <PUBCHEM_CACTVS_HBOND_DONOR>
0

> <PUBCHEM_CACTVS_ROTATABLE_BOND>
0

> <PUBCHEM_CACTVS_SUBSKEYS>
AAADceBwAAAAAAAAAAAAAAAAGAAAAAAAAAAgAAAABAAAAAAAAAAAGAAAAAAADwCAAAACAAAAAACAAiBCAAAAAAAgAAAACAAAAAgAAAIAAQAAAAAAgAAIAAMAgMAPgAAAAAAAAAAAAAAAAAAAAAAAAAAAAA==

> <PUBCHEM_IUPAC_OPENEYE_NAME>
3,7,7-trimethylbicyclo[4.1.0]hept-3-ene

> <PUBCHEM_IUPAC_CAS_NAME>
3,7,7-trimethylbicyclo[4.1.0]hept-3-ene

> <PUBCHEM_IUPAC_NAME>
3,7,7-trimethylbicyclo[4.1.0]hept-3-ene

> <PUBCHEM_IUPAC_SYSTEMATIC_NAME>
3,7,7-trimethylbicyclo[4.1.0]hept-3-ene

> <PUBCHEM_IUPAC_TRADITIONAL_NAME>
3,7,7-trimethylbicyclo[4.1.0]hept-3-ene

> <PUBCHEM_IUPAC_INCHI>
InChI=1S/C10H16/c1-7-4-5-8-9(6-7)10(8,2)3/h4,8-9H,5-6H2,1-3H3

> <PUBCHEM_IUPAC_INCHIKEY>
BQOFWKZOCNGFEC-UHFFFAOYSA-N

> <PUBCHEM_XLOGP3_AA>
2.8

> <PUBCHEM_EXACT_MASS>
136.125

> <PUBCHEM_MOLECULAR_FORMULA>
C10H16

> <PUBCHEM_MOLECULAR_WEIGHT>
136.238

> <PUBCHEM_OPENEYE_CAN_SMILES>
CC1=CCC2C(C1)C2(C)C

> <PUBCHEM_OPENEYE_ISO_SMILES>
CC1=CCC2C(C1)C2(C)C

> <PUBCHEM_CACTVS_TPSA>
0

> <PUBCHEM_MONOISOTOPIC_WEIGHT>
136.125

> <PUBCHEM_TOTAL_CHARGE>
0

> <PUBCHEM_HEAVY_ATOM_COUNT>
10

> <PUBCHEM_ATOM_DEF_STEREO_COUNT>
0

> <PUBCHEM_ATOM_UDEF_STEREO_COUNT>
2

> <PUBCHEM_BOND_DEF_STEREO_COUNT>
0

> <PUBCHEM_BOND_UDEF_STEREO_COUNT>
0

> <PUBCHEM_ISOTOPIC_ATOM_COUNT>
0

> <PUBCHEM_COMPONENT_COUNT>
1

> <PUBCHEM_CACTVS_TAUTO_COUNT>
-1

> <PUBCHEM_COORDINATE_TYPE>
1
5
255

> <PUBCHEM_BONDANNOTATIONS>
2  1  3
3  1  3

$$$$
6654
  -OEChem-02201912152D

 26 27  0     1  0  0  0  0  0999 V2000
    5.4490   -0.0329    0.0000 C   0  0  0  0  0  0  0  0  0  0  0  0
    4.3089    0.9242    0.0000 C   0  0  3  0  0  0  0  0  0  0  0  0
    4.0501   -0.0417    0.0000 C   0  0  3  0  0  0  0  0  0  0  0  0
    3.5723    1.9068    0.0000 C   0  0  0  0  0  0  0  0  0  0  0  0
    2.2756    0.6130    0.0000 C   0  0  0  0  0  0  0  0  0  0  0  0
    2.8290   -0.9074    0.0000 C   0  0  0  0  0  0  0  0  0  0  0  0
    5.9490   -0.8990    0.0000 C   0  0  0  0  0  0  0  0  0  0  0  0
    6.3150    0.4671    0.0000 C   0  0  0  0  0  0  0  0  0  0  0  0
    2.0000   -0.3482    0.0000 C   0  0  0  0  0  0  0  0  0  0  0  0
    2.8639   -1.9068    0.0000 C   0  0  0  0  0  0  0  0  0  0  0  0
    4.9262    1.5084    0.0000 H   0  0  0  0  0  0  0  0  0  0  0  0
    4.3106   -0.8508    0.0000 H   0  0  0  0  0  0  0  0  0  0  0  0
    3.8901    2.4392    0.0000 H   0  0  0  0  0  0  0  0  0  0  0  0
    2.9591    1.9988    0.0000 H   0  0  0  0  0  0  0  0  0  0  0  0
    2.2706    1.2330    0.0000 H   0  0  0  0  0  0  0  0  0  0  0  0
    1.6613    0.6968    0.0000 H   0  0  0  0  0  0  0  0  0  0  0  0
    5.4121   -1.2090    0.0000 H   0  0  0  0  0  0  0  0  0  0  0  0
    6.2590   -1.4359    0.0000 H   0  0  0  0  0  0  0  0  0  0  0  0
    6.4859   -0.5890    0.0000 H   0  0  0  0  0  0  0  0  0  0  0  0
    6.6250   -0.0699    0.0000 H   0  0  0  0  0  0  0  0  0  0  0  0
    6.8520    0.7771    0.0000 H   0  0  0  0  0  0  0  0  0  0  0  0
    6.0050    1.0040    0.0000 H   0  0  0  0  0  0  0  0  0  0  0  0
    1.4174   -0.5603    0.0000 H   0  0  0  0  0  0  0  0  0  0  0  0
    2.2443   -1.9284    0.0000 H   0  0  0  0  0  0  0  0  0  0  0  0
    2.8856   -2.5264    0.0000 H   0  0  0  0  0  0  0  0  0  0  0  0
    3.4836   -1.8852    0.0000 H   0  0  0  0  0  0  0  0  0  0  0  0
  1  2  1  0  0  0  0
  1  3  1  0  0  0  0
  1  7  1  0  0  0  0
  1  8  1  0  0  0  0
  2  4  1  0  0  0  0
  2  5  1  0  0  0  0
  2 11  1  0  0  0  0
  3  4  1  0  0  0  0
  3  6  1  0  0  0  0
  3 12  1  0  0  0  0
  4 13  1  0  0  0  0
  4 14  1  0  0  0  0
  5  9  1  0  0  0  0
  5 15  1  0  0  0  0
  5 16  1  0  0  0  0
  6  9  2  0  0  0  0
  6 10  1  0  0  0  0
  7 17  1  0  0  0  0
  7 18  1  0  0  0  0
  7 19  1  0  0  0  0
  8 20  1  0  0  0  0
  8 21  1  0  0  0  0
  8 22  1  0  0  0  0
  9 23  1  0  0  0  0
 10 24  1  0  0  0  0
 10 25  1  0  0  0  0
 10 26  1  0  0  0  0
M  END
> <PUBCHEM_COMPOUND_CID>
6654

> <PUBCHEM_COMPOUND_CANONICALIZED>
1

> <PUBCHEM_CACTVS_COMPLEXITY>
186

> <PUBCHEM_CACTVS_HBOND_ACCEPTOR>
0

> <PUBCHEM_CACTVS_HBOND_DONOR>
0

> <PUBCHEM_CACTVS_ROTATABLE_BOND>
0

> <PUBCHEM_CACTVS_SUBSKEYS>
AAADceBwAAAAAAAAAAAAAAAAAABgAAAAAAAgQAAAAAAAAAAAAAAAGAAAAAAADwCAAAACAAAAAACAAiBCAAAAAAAgAAAACAAAAAgAAAIAAQAAAAAAgAAIAAMAgEAPgAAAAAAAAAAAAAAAAAAAAAAAAAAAAA==

> <PUBCHEM_IUPAC_OPENEYE_NAME>
2,6,6-trimethylbicyclo[3.1.1]hept-2-ene

> <PUBCHEM_IUPAC_CAS_NAME>
2,6,6-trimethylbicyclo[3.1.1]hept-2-ene

> <PUBCHEM_IUPAC_NAME>
2,6,6-trimethylbicyclo[3.1.1]hept-2-ene

> <PUBCHEM_IUPAC_SYSTEMATIC_NAME>
2,6,6-trimethylbicyclo[3.1.1]hept-2-ene

> <PUBCHEM_IUPAC_TRADITIONAL_NAME>
2,6,6-trimethylbicyclo[3.1.1]hept-2-ene

> <PUBCHEM_IUPAC_INCHI>
InChI=1S/C10H16/c1-7-4-5-8-6-9(7)10(8,2)3/h4,8-9H,5-6H2,1-3H3

> <PUBCHEM_IUPAC_INCHIKEY>
GRWFGVWFFZKLTI-UHFFFAOYSA-N

> <PUBCHEM_XLOGP3_AA>
2.8

> <PUBCHEM_EXACT_MASS>
136.125

> <PUBCHEM_MOLECULAR_FORMULA>
C10H16

> <PUBCHEM_MOLECULAR_WEIGHT>
136.238

> <PUBCHEM_OPENEYE_CAN_SMILES>
CC1=CCC2CC1C2(C)C

> <PUBCHEM_OPENEYE_ISO_SMILES>
CC1=CCC2CC1C2(C)C

> <PUBCHEM_CACTVS_TPSA>
0

> <PUBCHEM_MONOISOTOPIC_WEIGHT>
136.125

> <PUBCHEM_TOTAL_CHARGE>
0

> <PUBCHEM_HEAVY_ATOM_COUNT>
10

> <PUBCHEM_ATOM_DEF_STEREO_COUNT>
0

> <PUBCHEM_ATOM_UDEF_STEREO_COUNT>
2

> <PUBCHEM_BOND_DEF_STEREO_COUNT>
0

> <PUBCHEM_BOND_UDEF_STEREO_COUNT>
0

> <PUBCHEM_ISOTOPIC_ATOM_COUNT>
0

> <PUBCHEM_COMPONENT_COUNT>
1

> <PUBCHEM_CACTVS_TAUTO_COUNT>
-1

> <PUBCHEM_COORDINATE_TYPE>
1
5
255

> <PUBCHEM_BONDANNOTATIONS>
2  11  3
3  12  3

$$$$
5368821
  -OEChem-02201912152D

 26 25  0     0  0  0  0  0  0999 V2000
    7.1962   -0.0600    0.0000 C   0  0  0  0  0  0  0  0  0  0  0  0
    3.7320   -0.0600    0.0000 C   0  0  0  0  0  0  0  0  0  0  0  0
    6.3301    0.4400    0.0000 C   0  0  0  0  0  0  0  0  0  0  0  0
    4.5981    0.4400    0.0000 C   0  0  0  0  0  0  0  0  0  0  0  0
    5.4641   -0.0600    0.0000 C   0  0  0  0  0  0  0  0  0  0  0  0
    8.0622    0.4400    0.0000 C   0  0  0  0  0  0  0  0  0  0  0  0
    7.1962   -1.0600    0.0000 C   0  0  0  0  0  0  0  0  0  0  0  0
    3.7320   -1.0600    0.0000 C   0  0  0  0  0  0  0  0  0  0  0  0
    2.8660    0.4400    0.0000 C   0  0  0  0  0  0  0  0  0  0  0  0
    2.0000   -0.0600    0.0000 C   0  0  0  0  0  0  0  0  0  0  0  0
    6.3301    1.0600    0.0000 H   0  0  0  0  0  0  0  0  0  0  0  0
    4.5981    1.0600    0.0000 H   0  0  0  0  0  0  0  0  0  0  0  0
    5.4641   -0.6800    0.0000 H   0  0  0  0  0  0  0  0  0  0  0  0
    6.5762   -1.0600    0.0000 H   0  0  0  0  0  0  0  0  0  0  0  0
    7.1962   -1.6800    0.0000 H   0  0  0  0  0  0  0  0  0  0  0  0
    7.8162   -1.0600    0.0000 H   0  0  0  0  0  0  0  0  0  0  0  0
    8.3722   -0.0969    0.0000 H   0  0  0  0  0  0  0  0  0  0  0  0
    8.5991    0.7500    0.0000 H   0  0  0  0  0  0  0  0  0  0  0  0
    7.7522    0.9769    0.0000 H   0  0  0  0  0  0  0  0  0  0  0  0
    3.1120   -1.0600    0.0000 H   0  0  0  0  0  0  0  0  0  0  0  0
    3.7320   -1.6800    0.0000 H   0  0  0  0  0  0  0  0  0  0  0  0
    4.3520   -1.0600    0.0000 H   0  0  0  0  0  0  0  0  0  0  0  0
    2.8660    1.0600    0.0000 H   0  0  0  0  0  0  0  0  0  0  0  0
    1.6900    0.4769    0.0000 H   0  0  0  0  0  0  0  0  0  0  0  0
    1.4631   -0.3700    0.0000 H   0  0  0  0  0  0  0  0  0  0  0  0
    2.3100   -0.5969    0.0000 H   0  0  0  0  0  0  0  0  0  0  0  0
  1  3  2  0  0  0  0
  1  6  1  0  0  0  0
  1  7  1  0  0  0  0
  2  4  1  0  0  0  0
  2  8  1  0  0  0  0
  2  9  2  0  0  0  0
  3  5  1  0  0  0  0
  3 11  1  0  0  0  0
  4  5  2  0  0  0  0
  4 12  1  0  0  0  0
  5 13  1  0  0  0  0
  6 17  1  0  0  0  0
  6 18  1  0  0  0  0
  6 19  1  0  0  0  0
  7 14  1  0  0  0  0
  7 15  1  0  0  0  0
  7 16  1  0  0  0  0
  8 20  1  0  0  0  0
  8 21  1  0  0  0  0
  8 22  1  0  0  0  0
  9 10  1  0  0  0  0
  9 23  1  0  0  0  0
 10 24  1  0  0  0  0
 10 25  1  0  0  0  0
 10 26  1  0  0  0  0
M  END
> <PUBCHEM_COMPOUND_CID>
5368821

> <PUBCHEM_COMPOUND_CANONICALIZED>
1

> <PUBCHEM_CACTVS_COMPLEXITY>
165

> <PUBCHEM_CACTVS_HBOND_ACCEPTOR>
0

> <PUBCHEM_CACTVS_HBOND_DONOR>
0

> <PUBCHEM_CACTVS_ROTATABLE_BOND>
2

> <PUBCHEM_CACTVS_SUBSKEYS>
AAADceBwAAAAAAAAAAAAAAAAAAAAAAAAAAAAAAAAAAAAAAAAAAAAGAAAAAAADACAAAACAAAAAACAAiBCAAAAAAAgAAAICAAAAAgIAAAAAQAAAAAAAAAIgAIAAAAAAAAAAAAAAAAAAAAAAAAAAAAAAAAAAA==

> <PUBCHEM_IUPAC_OPENEYE_NAME>
(4~{E},6~{E})-2,6-dimethylocta-2,4,6-triene

> <PUBCHEM_IUPAC_CAS_NAME>
(4~{E},6~{E})-2,6-dimethylocta-2,4,6-triene

> <PUBCHEM_IUPAC_NAME>
(4~{E},6~{E})-2,6-dimethylocta-2,4,6-triene

> <PUBCHEM_IUPAC_SYSTEMATIC_NAME>
(4~{E},6~{E})-2,6-dimethylocta-2,4,6-triene

> <PUBCHEM_IUPAC_TRADITIONAL_NAME>
(4~{E},6~{E})-2,6-dimethylocta-2,4,6-triene

> <PUBCHEM_IUPAC_INCHI>
InChI=1S/C10H16/c1-5-10(4)8-6-7-9(2)3/h5-8H,1-4H3/b8-6+,10-5+

> <PUBCHEM_IUPAC_INCHIKEY>
GQVMHMFBVWSSPF-SOYUKNQTSA-N

> <PUBCHEM_XLOGP3_AA>
4.2

> <PUBCHEM_EXACT_MASS>
136.125

> <PUBCHEM_MOLECULAR_FORMULA>
C10H16

> <PUBCHEM_MOLECULAR_WEIGHT>
136.238

> <PUBCHEM_OPENEYE_CAN_SMILES>
CC=C(C)C=CC=C(C)C

> <PUBCHEM_OPENEYE_ISO_SMILES>
C/C=C(\C)/C=C/C=C(C)C

> <PUBCHEM_CACTVS_TPSA>
0

> <PUBCHEM_MONOISOTOPIC_WEIGHT>
136.125

> <PUBCHEM_TOTAL_CHARGE>
0

> <PUBCHEM_HEAVY_ATOM_COUNT>
10

> <PUBCHEM_ATOM_DEF_STEREO_COUNT>
0

> <PUBCHEM_ATOM_UDEF_STEREO_COUNT>
0

> <PUBCHEM_BOND_DEF_STEREO_COUNT>
2

> <PUBCHEM_BOND_UDEF_STEREO_COUNT>
0

> <PUBCHEM_ISOTOPIC_ATOM_COUNT>
0

> <PUBCHEM_COMPONENT_COUNT>
1

> <PUBCHEM_CACTVS_TAUTO_COUNT>
-1

> <PUBCHEM_COORDINATE_TYPE>
1
5
255

$$$$
7460
  -OEChem-02201912152D

 26 26  0     1  0  0  0  0  0999 V2000
    2.8660    0.7500    0.0000 C   0  0  3  0  0  0  0  0  0  0  0  0
    2.8660    1.7500    0.0000 C   0  0  0  0  0  0  0  0  0  0  0  0
    2.0000    0.2500    0.0000 C   0  0  0  0  0  0  0  0  0  0  0  0
    3.7320    0.2500    0.0000 C   0  0  0  0  0  0  0  0  0  0  0  0
    3.7320    2.2500    0.0000 C   0  0  0  0  0  0  0  0  0  0  0  0
    2.0000    2.2500    0.0000 C   0  0  0  0  0  0  0  0  0  0  0  0
    2.0000   -0.7500    0.0000 C   0  0  0  0  0  0  0  0  0  0  0  0
    2.8660   -1.2500    0.0000 C   0  0  0  0  0  0  0  0  0  0  0  0
    3.7320   -0.7500    0.0000 C   0  0  0  0  0  0  0  0  0  0  0  0
    2.8660   -2.2500    0.0000 C   0  0  0  0  0  0  0  0  0  0  0  0
    3.6022    1.1750    0.0000 H   0  0  0  0  0  0  0  0  0  0  0  0
    2.8660    2.3700    0.0000 H   0  0  0  0  0  0  0  0  0  0  0  0
    1.7880    0.8326    0.0000 H   0  0  0  0  0  0  0  0  0  0  0  0
    1.3894    0.1423    0.0000 H   0  0  0  0  0  0  0  0  0  0  0  0
    4.2690    0.5600    0.0000 H   0  0  0  0  0  0  0  0  0  0  0  0
    4.0420    1.7131    0.0000 H   0  0  0  0  0  0  0  0  0  0  0  0
    4.2690    2.5600    0.0000 H   0  0  0  0  0  0  0  0  0  0  0  0
    2.3100    2.7869    0.0000 H   0  0  0  0  0  0  0  0  0  0  0  0
    1.4631    2.5600    0.0000 H   0  0  0  0  0  0  0  0  0  0  0  0
    1.6900    1.7131    0.0000 H   0  0  0  0  0  0  0  0  0  0  0  0
    3.4220    2.7869    0.0000 H   0  0  0  0  0  0  0  0  0  0  0  0
    1.4631   -1.0600    0.0000 H   0  0  0  0  0  0  0  0  0  0  0  0
    4.2690   -1.0600    0.0000 H   0  0  0  0  0  0  0  0  0  0  0  0
    2.2460   -2.2500    0.0000 H   0  0  0  0  0  0  0  0  0  0  0  0
    2.8660   -2.8700    0.0000 H   0  0  0  0  0  0  0  0  0  0  0  0
    3.4860   -2.2500    0.0000 H   0  0  0  0  0  0  0  0  0  0  0  0
  1  2  1  0  0  0  0
  1  3  1  0  0  0  0
  1  4  1  0  0  0  0
  1 11  1  0  0  0  0
  2  5  1  0  0  0  0
  2  6  1  0  0  0  0
  2 12  1  0  0  0  0
  3  7  1  0  0  0  0
  3 13  1  0  0  0  0
  3 14  1  0  0  0  0
  4  9  2  0  0  0  0
  4 15  1  0  0  0  0
  5 16  1  0  0  0  0
  5 17  1  0  0  0  0
  5 21  1  0  0  0  0
  6 18  1  0  0  0  0
  6 19  1  0  0  0  0
  6 20  1  0  0  0  0
  7  8  2  0  0  0  0
  7 22  1  0  0  0  0
  8  9  1  0  0  0  0
  8 10  1  0  0  0  0
  9 23  1  0  0  0  0
 10 24  1  0  0  0  0
 10 25  1  0  0  0  0
 10 26  1  0  0  0  0
M  END
> <PUBCHEM_COMPOUND_CID>
7460

> <PUBCHEM_COMPOUND_CANONICALIZED>
1

> <PUBCHEM_CACTVS_COMPLEXITY>
161

> <PUBCHEM_CACTVS_HBOND_ACCEPTOR>
0

> <PUBCHEM_CACTVS_HBOND_DONOR>
0

> <PUBCHEM_CACTVS_ROTATABLE_BOND>
1

> <PUBCHEM_CACTVS_SUBSKEYS>
AAADceBwAAAAAAAAAAAAAAAAAAAAAAAAAAAgAAAAAAAAAAAAAAAAGAAAAAAADQCAAAACAAAAAACAAiBCAAAAAAAgAAAICAAAAAgIAAIAAQAAAAAAgAAIgAIAAAAOgAAAAAAAAAAAAAAAAAAAAAAAAAAAAA==

> <PUBCHEM_IUPAC_OPENEYE_NAME>
5-isopropyl-2-methyl-cyclohexa-1,3-diene

> <PUBCHEM_IUPAC_CAS_NAME>
2-methyl-5-propan-2-ylcyclohexa-1,3-diene

> <PUBCHEM_IUPAC_NAME>
2-methyl-5-propan-2-ylcyclohexa-1,3-diene

> <PUBCHEM_IUPAC_SYSTEMATIC_NAME>
2-methyl-5-propan-2-yl-cyclohexa-1,3-diene

> <PUBCHEM_IUPAC_TRADITIONAL_NAME>
5-isopropyl-2-methyl-cyclohexa-1,3-diene

> <PUBCHEM_IUPAC_INCHI>
InChI=1S/C10H16/c1-8(2)10-6-4-9(3)5-7-10/h4-6,8,10H,7H2,1-3H3

> <PUBCHEM_IUPAC_INCHIKEY>
OGLDWXZKYODSOB-UHFFFAOYSA-N

> <PUBCHEM_XLOGP3_AA>
3.2

> <PUBCHEM_EXACT_MASS>
136.125

> <PUBCHEM_MOLECULAR_FORMULA>
C10H16

> <PUBCHEM_MOLECULAR_WEIGHT>
136.238

> <PUBCHEM_OPENEYE_CAN_SMILES>
CC1=CCC(C=C1)C(C)C

> <PUBCHEM_OPENEYE_ISO_SMILES>
CC1=CCC(C=C1)C(C)C

> <PUBCHEM_CACTVS_TPSA>
0

> <PUBCHEM_MONOISOTOPIC_WEIGHT>
136.125

> <PUBCHEM_TOTAL_CHARGE>
0

> <PUBCHEM_HEAVY_ATOM_COUNT>
10

> <PUBCHEM_ATOM_DEF_STEREO_COUNT>
0

> <PUBCHEM_ATOM_UDEF_STEREO_COUNT>
1

> <PUBCHEM_BOND_DEF_STEREO_COUNT>
0

> <PUBCHEM_BOND_UDEF_STEREO_COUNT>
0

> <PUBCHEM_ISOTOPIC_ATOM_COUNT>
0

> <PUBCHEM_COMPONENT_COUNT>
1

> <PUBCHEM_CACTVS_TAUTO_COUNT>
-1

> <PUBCHEM_COORDINATE_TYPE>
1
5
255

> <PUBCHEM_BONDANNOTATIONS>
1  11  3

$$$$
21630868
  -OEChem-02201912152D

 25 25  0     1  0  0  0  0  0999 V2000
    4.5032   -0.2020    0.0000 O   0  0  0  0  0  0  0  0  0  0  0  0
    2.5352   -0.9014    0.0000 O   0  0  0  0  0  0  0  0  0  0  0  0
    5.3122    0.3858    0.0000 C   0  0  1  0  0  0  0  0  0  0  0  0
    5.0032    1.3368    0.0000 C   0  0  0  0  0  0  0  0  0  0  0  0
    4.0032    1.3368    0.0000 C   0  0  0  0  0  0  0  0  0  0  0  0
    3.6942    0.3858    0.0000 C   0  0  2  0  0  0  0  0  0  0  0  0
    6.2633    0.6948    0.0000 C   0  0  0  0  0  0  0  0  0  0  0  0
    5.9000   -0.4233    0.0000 C   0  0  0  0  0  0  0  0  0  0  0  0
    2.7431    0.0767    0.0000 C   0  0  0  0  0  0  0  0  0  0  0  0
    2.0000    0.7459    0.0000 C   0  0  0  0  0  0  0  0  0  0  0  0
    5.4933   -1.3368    0.0000 C   0  0  0  0  0  0  0  0  0  0  0  0
    5.6097    1.4657    0.0000 H   0  0  0  0  0  0  0  0  0  0  0  0
    4.9384    1.9534    0.0000 H   0  0  0  0  0  0  0  0  0  0  0  0
    4.0680    1.9534    0.0000 H   0  0  0  0  0  0  0  0  0  0  0  0
    3.3968    1.4657    0.0000 H   0  0  0  0  0  0  0  0  0  0  0  0
    3.5972   -0.2266    0.0000 H   0  0  0  0  0  0  0  0  0  0  0  0
    6.4549    0.1051    0.0000 H   0  0  0  0  0  0  0  0  0  0  0  0
    6.8530    0.8864    0.0000 H   0  0  0  0  0  0  0  0  0  0  0  0
    6.0717    1.2844    0.0000 H   0  0  0  0  0  0  0  0  0  0  0  0
    6.5166   -0.3585    0.0000 H   0  0  0  0  0  0  0  0  0  0  0  0
    2.4149    1.2066    0.0000 H   0  0  0  0  0  0  0  0  0  0  0  0
    1.5392    1.1607    0.0000 H   0  0  0  0  0  0  0  0  0  0  0  0
    1.5851    0.2851    0.0000 H   0  0  0  0  0  0  0  0  0  0  0  0
    4.8767   -1.4016    0.0000 H   0  0  0  0  0  0  0  0  0  0  0  0
    5.8577   -1.8384    0.0000 H   0  0  0  0  0  0  0  0  0  0  0  0
  1  3  1  0  0  0  0
  1  6  1  0  0  0  0
  2  9  2  0  0  0  0
  3  4  1  0  0  0  0
  3  7  1  1  0  0  0
  3  8  1  0  0  0  0
  4  5  1  0  0  0  0
  4 12  1  0  0  0  0
  4 13  1  0  0  0  0
  5  6  1  0  0  0  0
  5 14  1  0  0  0  0
  5 15  1  0  0  0  0
  6  9  1  1  0  0  0
  6 16  1  0  0  0  0
  7 17  1  0  0  0  0
  7 18  1  0  0  0  0
  7 19  1  0  0  0  0
  8 11  2  0  0  0  0
  8 20  1  0  0  0  0
  9 10  1  0  0  0  0
 10 21  1  0  0  0  0
 10 22  1  0  0  0  0
 10 23  1  0  0  0  0
 11 24  1  0  0  0  0
 11 25  1  0  0  0  0
M  END
> <PUBCHEM_COMPOUND_CID>
21630868

> <PUBCHEM_COMPOUND_CANONICALIZED>
1

> <PUBCHEM_CACTVS_COMPLEXITY>
186

> <PUBCHEM_CACTVS_HBOND_ACCEPTOR>
2

> <PUBCHEM_CACTVS_HBOND_DONOR>
0

> <PUBCHEM_CACTVS_ROTATABLE_BOND>
2

> <PUBCHEM_CACTVS_SUBSKEYS>
AAADccBwMAAAAAAAAAAAAAAAAAAAASAAAAAAAAAAAAAAAAAAAAAAGgAAAAAADFSggAICAAAABACIAKBSAAIAAAAgAAAIAAFAAAgABBIAIAQCAAAEgAAAIAGIzEBMAAAAAAAAAAAAAAAAAAAAAAAAAAAAAA==

> <PUBCHEM_IUPAC_OPENEYE_NAME>
1-[(2~{R},5~{R})-5-methyl-5-vinyl-tetrahydrofuran-2-yl]ethanone

> <PUBCHEM_IUPAC_CAS_NAME>
1-[(2~{R},5~{R})-5-ethenyl-5-methyl-2-oxolanyl]ethanone

> <PUBCHEM_IUPAC_NAME>
1-[(2~{R},5~{R})-5-ethenyl-5-methyloxolan-2-yl]ethanone

> <PUBCHEM_IUPAC_SYSTEMATIC_NAME>
1-[(2~{R},5~{R})-5-ethenyl-5-methyl-oxolan-2-yl]ethanone

> <PUBCHEM_IUPAC_TRADITIONAL_NAME>
1-[(2~{R},5~{R})-5-methyl-5-vinyl-tetrahydrofuran-2-yl]ethanone

> <PUBCHEM_IUPAC_INCHI>
InChI=1S/C9H14O2/c1-4-9(3)6-5-8(11-9)7(2)10/h4,8H,1,5-6H2,2-3H3/t8-,9+/m1/s1

> <PUBCHEM_IUPAC_INCHIKEY>
FBFSXARBCWGXJL-BDAKNGLRSA-N

> <PUBCHEM_XLOGP3_AA>
1.2

> <PUBCHEM_EXACT_MASS>
154.099

> <PUBCHEM_MOLECULAR_FORMULA>
C9H14O2

> <PUBCHEM_MOLECULAR_WEIGHT>
154.209

> <PUBCHEM_OPENEYE_CAN_SMILES>
CC(=O)C1CCC(O1)(C)C=C

> <PUBCHEM_OPENEYE_ISO_SMILES>
CC(=O)[C@H]1CC[C@](O1)(C)C=C

> <PUBCHEM_CACTVS_TPSA>
26.3

> <PUBCHEM_MONOISOTOPIC_WEIGHT>
154.099

> <PUBCHEM_TOTAL_CHARGE>
0

> <PUBCHEM_HEAVY_ATOM_COUNT>
11

> <PUBCHEM_ATOM_DEF_STEREO_COUNT>
2

> <PUBCHEM_ATOM_UDEF_STEREO_COUNT>
0

> <PUBCHEM_BOND_DEF_STEREO_COUNT>
0

> <PUBCHEM_BOND_UDEF_STEREO_COUNT>
0

> <PUBCHEM_ISOTOPIC_ATOM_COUNT>
0

> <PUBCHEM_COMPONENT_COUNT>
1

> <PUBCHEM_CACTVS_TAUTO_COUNT>
-1

> <PUBCHEM_COORDINATE_TYPE>
1
5
255

> <PUBCHEM_BONDANNOTATIONS>
3  7  5
6  9  5

$$$$
7462
  -OEChem-02201912152D

 26 26  0     0  0  0  0  0  0999 V2000
    2.8660    0.7500    0.0000 C   0  0  0  0  0  0  0  0  0  0  0  0
    2.8660    1.7500    0.0000 C   0  0  0  0  0  0  0  0  0  0  0  0
    2.0000    0.2500    0.0000 C   0  0  0  0  0  0  0  0  0  0  0  0
    2.0000   -0.7500    0.0000 C   0  0  0  0  0  0  0  0  0  0  0  0
    2.8660   -1.2500    0.0000 C   0  0  0  0  0  0  0  0  0  0  0  0
    3.7320    0.2500    0.0000 C   0  0  0  0  0  0  0  0  0  0  0  0
    3.7320    2.2500    0.0000 C   0  0  0  0  0  0  0  0  0  0  0  0
    2.0000    2.2500    0.0000 C   0  0  0  0  0  0  0  0  0  0  0  0
    3.7320   -0.7500    0.0000 C   0  0  0  0  0  0  0  0  0  0  0  0
    2.8660   -2.2500    0.0000 C   0  0  0  0  0  0  0  0  0  0  0  0
    2.8660    2.3700    0.0000 H   0  0  0  0  0  0  0  0  0  0  0  0
    1.7880    0.8326    0.0000 H   0  0  0  0  0  0  0  0  0  0  0  0
    1.3894    0.1423    0.0000 H   0  0  0  0  0  0  0  0  0  0  0  0
    1.3894   -0.6423    0.0000 H   0  0  0  0  0  0  0  0  0  0  0  0
    1.7880   -1.3326    0.0000 H   0  0  0  0  0  0  0  0  0  0  0  0
    4.2690    0.5600    0.0000 H   0  0  0  0  0  0  0  0  0  0  0  0
    2.3100    2.7869    0.0000 H   0  0  0  0  0  0  0  0  0  0  0  0
    1.4631    2.5600    0.0000 H   0  0  0  0  0  0  0  0  0  0  0  0
    1.6900    1.7131    0.0000 H   0  0  0  0  0  0  0  0  0  0  0  0
    4.0420    1.7131    0.0000 H   0  0  0  0  0  0  0  0  0  0  0  0
    4.2690    2.5600    0.0000 H   0  0  0  0  0  0  0  0  0  0  0  0
    3.4220    2.7869    0.0000 H   0  0  0  0  0  0  0  0  0  0  0  0
    4.2690   -1.0600    0.0000 H   0  0  0  0  0  0  0  0  0  0  0  0
    2.2460   -2.2500    0.0000 H   0  0  0  0  0  0  0  0  0  0  0  0
    2.8660   -2.8700    0.0000 H   0  0  0  0  0  0  0  0  0  0  0  0
    3.4860   -2.2500    0.0000 H   0  0  0  0  0  0  0  0  0  0  0  0
  1  2  1  0  0  0  0
  1  3  1  0  0  0  0
  1  6  2  0  0  0  0
  2  7  1  0  0  0  0
  2  8  1  0  0  0  0
  2 11  1  0  0  0  0
  3  4  1  0  0  0  0
  3 12  1  0  0  0  0
  3 13  1  0  0  0  0
  4  5  1  0  0  0  0
  4 14  1  0  0  0  0
  4 15  1  0  0  0  0
  5  9  2  0  0  0  0
  5 10  1  0  0  0  0
  6  9  1  0  0  0  0
  6 16  1  0  0  0  0
  7 20  1  0  0  0  0
  7 21  1  0  0  0  0
  7 22  1  0  0  0  0
  8 17  1  0  0  0  0
  8 18  1  0  0  0  0
  8 19  1  0  0  0  0
  9 23  1  0  0  0  0
 10 24  1  0  0  0  0
 10 25  1  0  0  0  0
 10 26  1  0  0  0  0
M  END
> <PUBCHEM_COMPOUND_CID>
7462

> <PUBCHEM_COMPOUND_CANONICALIZED>
1

> <PUBCHEM_CACTVS_COMPLEXITY>
171

> <PUBCHEM_CACTVS_HBOND_ACCEPTOR>
0

> <PUBCHEM_CACTVS_HBOND_DONOR>
0

> <PUBCHEM_CACTVS_ROTATABLE_BOND>
1

> <PUBCHEM_CACTVS_SUBSKEYS>
AAADceBwAAAAAAAAAAAAAAAAAAAAAAAAAAAgAAAAAAAAAAAAAAAAGAAAAAAADQCAAAACAAAAAACAAiBCAAAAAAAgAAAACAAAAAgIAAIAAQAAAAAAgAAIgAMAgEAMAAAAAAAAAAAAAAAAAAAAAAAAAAAAAA==

> <PUBCHEM_IUPAC_OPENEYE_NAME>
1-isopropyl-4-methyl-cyclohexa-1,3-diene

> <PUBCHEM_IUPAC_CAS_NAME>
1-methyl-4-propan-2-ylcyclohexa-1,3-diene

> <PUBCHEM_IUPAC_NAME>
1-methyl-4-propan-2-ylcyclohexa-1,3-diene

> <PUBCHEM_IUPAC_SYSTEMATIC_NAME>
1-methyl-4-propan-2-yl-cyclohexa-1,3-diene

> <PUBCHEM_IUPAC_TRADITIONAL_NAME>
1-isopropyl-4-methyl-cyclohexa-1,3-diene

> <PUBCHEM_IUPAC_INCHI>
InChI=1S/C10H16/c1-8(2)10-6-4-9(3)5-7-10/h4,6,8H,5,7H2,1-3H3

> <PUBCHEM_IUPAC_INCHIKEY>
YHQGMYUVUMAZJR-UHFFFAOYSA-N

> <PUBCHEM_XLOGP3_AA>
2.8

> <PUBCHEM_EXACT_MASS>
136.125

> <PUBCHEM_MOLECULAR_FORMULA>
C10H16

> <PUBCHEM_MOLECULAR_WEIGHT>
136.238

> <PUBCHEM_OPENEYE_CAN_SMILES>
CC1=CC=C(CC1)C(C)C

> <PUBCHEM_OPENEYE_ISO_SMILES>
CC1=CC=C(CC1)C(C)C

> <PUBCHEM_CACTVS_TPSA>
0

> <PUBCHEM_MONOISOTOPIC_WEIGHT>
136.125

> <PUBCHEM_TOTAL_CHARGE>
0

> <PUBCHEM_HEAVY_ATOM_COUNT>
10

> <PUBCHEM_ATOM_DEF_STEREO_COUNT>
0

> <PUBCHEM_ATOM_UDEF_STEREO_COUNT>
0

> <PUBCHEM_BOND_DEF_STEREO_COUNT>
0

> <PUBCHEM_BOND_UDEF_STEREO_COUNT>
0

> <PUBCHEM_ISOTOPIC_ATOM_COUNT>
0

> <PUBCHEM_COMPONENT_COUNT>
1

> <PUBCHEM_CACTVS_TAUTO_COUNT>
-1

> <PUBCHEM_COORDINATE_TYPE>
1
5
255

$$$$
17100
  -OEChem-02201912152D

 29 29  0     1  0  0  0  0  0999 V2000
    3.0000    2.3450    0.0000 O   0  0  0  0  0  0  0  0  0  0  0  0
    3.0000    0.3450    0.0000 C   0  0  3  0  0  0  0  0  0  0  0  0
    3.0000    1.3450    0.0000 C   0  0  0  0  0  0  0  0  0  0  0  0
    2.1340   -0.1550    0.0000 C   0  0  0  0  0  0  0  0  0  0  0  0
    3.8660   -0.1550    0.0000 C   0  0  0  0  0  0  0  0  0  0  0  0
    2.1340   -1.1550    0.0000 C   0  0  0  0  0  0  0  0  0  0  0  0
    3.0000   -1.6550    0.0000 C   0  0  0  0  0  0  0  0  0  0  0  0
    3.8660   -1.1550    0.0000 C   0  0  0  0  0  0  0  0  0  0  0  0
    4.0000    1.3450    0.0000 C   0  0  0  0  0  0  0  0  0  0  0  0
    2.0000    1.3450    0.0000 C   0  0  0  0  0  0  0  0  0  0  0  0
    3.0000   -2.6550    0.0000 C   0  0  0  0  0  0  0  0  0  0  0  0
    3.5369    0.6550    0.0000 H   0  0  0  0  0  0  0  0  0  0  0  0
    1.9219    0.4276    0.0000 H   0  0  0  0  0  0  0  0  0  0  0  0
    1.5234   -0.2627    0.0000 H   0  0  0  0  0  0  0  0  0  0  0  0
    4.4766   -0.2627    0.0000 H   0  0  0  0  0  0  0  0  0  0  0  0
    4.0781    0.4276    0.0000 H   0  0  0  0  0  0  0  0  0  0  0  0
    1.5234   -1.0473    0.0000 H   0  0  0  0  0  0  0  0  0  0  0  0
    1.9219   -1.7376    0.0000 H   0  0  0  0  0  0  0  0  0  0  0  0
    4.4030   -1.4650    0.0000 H   0  0  0  0  0  0  0  0  0  0  0  0
    4.0000    0.7250    0.0000 H   0  0  0  0  0  0  0  0  0  0  0  0
    4.6200    1.3450    0.0000 H   0  0  0  0  0  0  0  0  0  0  0  0
    4.0000    1.9650    0.0000 H   0  0  0  0  0  0  0  0  0  0  0  0
    2.0000    1.9650    0.0000 H   0  0  0  0  0  0  0  0  0  0  0  0
    1.3800    1.3450    0.0000 H   0  0  0  0  0  0  0  0  0  0  0  0
    2.0000    0.7250    0.0000 H   0  0  0  0  0  0  0  0  0  0  0  0
    3.5369    2.6550    0.0000 H   0  0  0  0  0  0  0  0  0  0  0  0
    2.3800   -2.6550    0.0000 H   0  0  0  0  0  0  0  0  0  0  0  0
    3.0000   -3.2750    0.0000 H   0  0  0  0  0  0  0  0  0  0  0  0
    3.6200   -2.6550    0.0000 H   0  0  0  0  0  0  0  0  0  0  0  0
  1  3  1  0  0  0  0
  1 26  1  0  0  0  0
  2  3  1  0  0  0  0
  2  4  1  0  0  0  0
  2  5  1  0  0  0  0
  2 12  1  0  0  0  0
  3  9  1  0  0  0  0
  3 10  1  0  0  0  0
  4  6  1  0  0  0  0
  4 13  1  0  0  0  0
  4 14  1  0  0  0  0
  5  8  1  0  0  0  0
  5 15  1  0  0  0  0
  5 16  1  0  0  0  0
  6  7  1  0  0  0  0
  6 17  1  0  0  0  0
  6 18  1  0  0  0  0
  7  8  2  0  0  0  0
  7 11  1  0  0  0  0
  8 19  1  0  0  0  0
  9 20  1  0  0  0  0
  9 21  1  0  0  0  0
  9 22  1  0  0  0  0
 10 23  1  0  0  0  0
 10 24  1  0  0  0  0
 10 25  1  0  0  0  0
 11 27  1  0  0  0  0
 11 28  1  0  0  0  0
 11 29  1  0  0  0  0
M  END
> <PUBCHEM_COMPOUND_CID>
17100

> <PUBCHEM_COMPOUND_CANONICALIZED>
1

> <PUBCHEM_CACTVS_COMPLEXITY>
168

> <PUBCHEM_CACTVS_HBOND_ACCEPTOR>
1

> <PUBCHEM_CACTVS_HBOND_DONOR>
1

> <PUBCHEM_CACTVS_ROTATABLE_BOND>
1

> <PUBCHEM_CACTVS_SUBSKEYS>
AAADceBwIAAAAAAAAAAAAAAAAAAAAAAAAAAgAAAAAAAAAAAAAAAAGgAACAAADUSAgAACAAAAAgCAAiBCAAAAAAAgAAAACAAAAAgAAAIAAQAAQAAEgAAIAAOAwEAOgAAAAAAAAAAAAAAAAAAAAAAAAAAAAA==

> <PUBCHEM_IUPAC_OPENEYE_NAME>
2-(4-methylcyclohex-3-en-1-yl)propan-2-ol

> <PUBCHEM_IUPAC_CAS_NAME>
2-(4-methyl-1-cyclohex-3-enyl)-2-propanol

> <PUBCHEM_IUPAC_NAME>
2-(4-methylcyclohex-3-en-1-yl)propan-2-ol

> <PUBCHEM_IUPAC_SYSTEMATIC_NAME>
2-(4-methylcyclohex-3-en-1-yl)propan-2-ol

> <PUBCHEM_IUPAC_TRADITIONAL_NAME>
2-(4-methylcyclohex-3-en-1-yl)propan-2-ol

> <PUBCHEM_IUPAC_INCHI>
InChI=1S/C10H18O/c1-8-4-6-9(7-5-8)10(2,3)11/h4,9,11H,5-7H2,1-3H3

> <PUBCHEM_IUPAC_INCHIKEY>
WUOACPNHFRMFPN-UHFFFAOYSA-N

> <PUBCHEM_XLOGP3_AA>
1.8

> <PUBCHEM_EXACT_MASS>
154.136

> <PUBCHEM_MOLECULAR_FORMULA>
C10H18O

> <PUBCHEM_MOLECULAR_WEIGHT>
154.253

> <PUBCHEM_OPENEYE_CAN_SMILES>
CC1=CCC(CC1)C(C)(C)O

> <PUBCHEM_OPENEYE_ISO_SMILES>
CC1=CCC(CC1)C(C)(C)O

> <PUBCHEM_CACTVS_TPSA>
20.2

> <PUBCHEM_MONOISOTOPIC_WEIGHT>
154.136

> <PUBCHEM_TOTAL_CHARGE>
0

> <PUBCHEM_HEAVY_ATOM_COUNT>
11

> <PUBCHEM_ATOM_DEF_STEREO_COUNT>
0

> <PUBCHEM_ATOM_UDEF_STEREO_COUNT>
1

> <PUBCHEM_BOND_DEF_STEREO_COUNT>
0

> <PUBCHEM_BOND_UDEF_STEREO_COUNT>
0

> <PUBCHEM_ISOTOPIC_ATOM_COUNT>
0

> <PUBCHEM_COMPONENT_COUNT>
1

> <PUBCHEM_CACTVS_TAUTO_COUNT>
-1

> <PUBCHEM_COORDINATE_TYPE>
1
5
255

> <PUBCHEM_BONDANNOTATIONS>
2  3  3

$$$$
17868
  -OEChem-02201912152D

 26 27  0     1  0  0  0  0  0999 V2000
    3.5388    0.3800    0.0000 C   0  0  3  0  0  0  0  0  0  0  0  0
    3.5388   -0.6200    0.0000 C   0  0  3  0  0  0  0  0  0  0  0  0
    4.4054   -0.1200    0.0000 C   0  0  0  0  0  0  0  0  0  0  0  0
    2.5878    0.6891    0.0000 C   0  0  0  0  0  0  0  0  0  0  0  0
    3.5388    1.3800    0.0000 C   0  0  0  0  0  0  0  0  0  0  0  0
    2.5878   -0.9290    0.0000 C   0  0  0  0  0  0  0  0  0  0  0  0
    2.0000   -0.1200    0.0000 C   0  0  0  0  0  0  0  0  0  0  0  0
    4.4049    1.8800    0.0000 C   0  0  0  0  0  0  0  0  0  0  0  0
    2.6728    1.8800    0.0000 C   0  0  0  0  0  0  0  0  0  0  0  0
    2.2788   -1.8800    0.0000 C   0  0  0  0  0  0  0  0  0  0  0  0
    3.7910   -1.1864    0.0000 H   0  0  0  0  0  0  0  0  0  0  0  0
    4.8039   -0.5949    0.0000 H   0  0  0  0  0  0  0  0  0  0  0  0
    4.8039    0.3550    0.0000 H   0  0  0  0  0  0  0  0  0  0  0  0
    2.8400    1.2554    0.0000 H   0  0  0  0  0  0  0  0  0  0  0  0
    2.0508    0.9991    0.0000 H   0  0  0  0  0  0  0  0  0  0  0  0
    3.5388    2.0000    0.0000 H   0  0  0  0  0  0  0  0  0  0  0  0
    1.3800   -0.1200    0.0000 H   0  0  0  0  0  0  0  0  0  0  0  0
    4.7149    1.3431    0.0000 H   0  0  0  0  0  0  0  0  0  0  0  0
    4.9418    2.1900    0.0000 H   0  0  0  0  0  0  0  0  0  0  0  0
    4.0949    2.4170    0.0000 H   0  0  0  0  0  0  0  0  0  0  0  0
    2.9828    2.4170    0.0000 H   0  0  0  0  0  0  0  0  0  0  0  0
    2.1359    2.1900    0.0000 H   0  0  0  0  0  0  0  0  0  0  0  0
    2.3628    1.3431    0.0000 H   0  0  0  0  0  0  0  0  0  0  0  0
    1.6891   -1.6884    0.0000 H   0  0  0  0  0  0  0  0  0  0  0  0
    2.0872   -2.4697    0.0000 H   0  0  0  0  0  0  0  0  0  0  0  0
    2.8684   -2.0716    0.0000 H   0  0  0  0  0  0  0  0  0  0  0  0
  1  2  1  0  0  0  0
  1  3  1  0  0  0  0
  1  4  1  0  0  0  0
  1  5  1  0  0  0  0
  2  3  1  0  0  0  0
  2  6  1  0  0  0  0
  2 11  1  0  0  0  0
  3 12  1  0  0  0  0
  3 13  1  0  0  0  0
  4  7  1  0  0  0  0
  4 14  1  0  0  0  0
  4 15  1  0  0  0  0
  5  8  1  0  0  0  0
  5  9  1  0  0  0  0
  5 16  1  0  0  0  0
  6  7  2  0  0  0  0
  6 10  1  0  0  0  0
  7 17  1  0  0  0  0
  8 18  1  0  0  0  0
  8 19  1  0  0  0  0
  8 20  1  0  0  0  0
  9 21  1  0  0  0  0
  9 22  1  0  0  0  0
  9 23  1  0  0  0  0
 10 24  1  0  0  0  0
 10 25  1  0  0  0  0
 10 26  1  0  0  0  0
M  END
> <PUBCHEM_COMPOUND_CID>
17868

> <PUBCHEM_COMPOUND_CANONICALIZED>
1

> <PUBCHEM_CACTVS_COMPLEXITY>
188

> <PUBCHEM_CACTVS_HBOND_ACCEPTOR>
0

> <PUBCHEM_CACTVS_HBOND_DONOR>
0

> <PUBCHEM_CACTVS_ROTATABLE_BOND>
1

> <PUBCHEM_CACTVS_SUBSKEYS>
AAADceBwAAAAAAAAAAAAAAAAGAAAAQAAAAAgAAAAAAAAAAAAAAAAGAAAAAAADwCAAAACAAAAAACAAiBCAAAAAAAgAAAACAAAAAgAAAIAAQAAAAAAgAAIAAMAgEAPgAAAAAAAAAAAAAAAAAAAAAAAAAAAAA==

> <PUBCHEM_IUPAC_OPENEYE_NAME>
5-isopropyl-2-methyl-bicyclo[3.1.0]hex-2-ene

> <PUBCHEM_IUPAC_CAS_NAME>
2-methyl-5-propan-2-ylbicyclo[3.1.0]hex-2-ene

> <PUBCHEM_IUPAC_NAME>
2-methyl-5-propan-2-ylbicyclo[3.1.0]hex-2-ene

> <PUBCHEM_IUPAC_SYSTEMATIC_NAME>
2-methyl-5-propan-2-yl-bicyclo[3.1.0]hex-2-ene

> <PUBCHEM_IUPAC_TRADITIONAL_NAME>
5-isopropyl-2-methyl-bicyclo[3.1.0]hex-2-ene

> <PUBCHEM_IUPAC_INCHI>
InChI=1S/C10H16/c1-7(2)10-5-4-8(3)9(10)6-10/h4,7,9H,5-6H2,1-3H3

> <PUBCHEM_IUPAC_INCHIKEY>
KQAZVFVOEIRWHN-UHFFFAOYSA-N

> <PUBCHEM_XLOGP3_AA>
2.8

> <PUBCHEM_EXACT_MASS>
136.125

> <PUBCHEM_MOLECULAR_FORMULA>
C10H16

> <PUBCHEM_MOLECULAR_WEIGHT>
136.238

> <PUBCHEM_OPENEYE_CAN_SMILES>
CC1=CCC2(C1C2)C(C)C

> <PUBCHEM_OPENEYE_ISO_SMILES>
CC1=CCC2(C1C2)C(C)C

> <PUBCHEM_CACTVS_TPSA>
0

> <PUBCHEM_MONOISOTOPIC_WEIGHT>
136.125

> <PUBCHEM_TOTAL_CHARGE>
0

> <PUBCHEM_HEAVY_ATOM_COUNT>
10

> <PUBCHEM_ATOM_DEF_STEREO_COUNT>
0

> <PUBCHEM_ATOM_UDEF_STEREO_COUNT>
2

> <PUBCHEM_BOND_DEF_STEREO_COUNT>
0

> <PUBCHEM_BOND_UDEF_STEREO_COUNT>
0

> <PUBCHEM_ISOTOPIC_ATOM_COUNT>
0

> <PUBCHEM_COMPONENT_COUNT>
1

> <PUBCHEM_CACTVS_TAUTO_COUNT>
-1

> <PUBCHEM_COORDINATE_TYPE>
1
5
255

> <PUBCHEM_BONDANNOTATIONS>
1  2  3
2  3  3

$$$$
7463
  -OEChem-02201912152D

 24 24  0     0  0  0  0  0  0999 V2000
    2.8660    1.7500    0.0000 C   0  0  0  0  0  0  0  0  0  0  0  0
    2.8660    0.7500    0.0000 C   0  0  0  0  0  0  0  0  0  0  0  0
    3.7320    2.2500    0.0000 C   0  0  0  0  0  0  0  0  0  0  0  0
    2.0000    2.2500    0.0000 C   0  0  0  0  0  0  0  0  0  0  0  0
    2.0000    0.2500    0.0000 C   0  0  0  0  0  0  0  0  0  0  0  0
    3.7320    0.2500    0.0000 C   0  0  0  0  0  0  0  0  0  0  0  0
    2.8660   -1.2500    0.0000 C   0  0  0  0  0  0  0  0  0  0  0  0
    2.0000   -0.7500    0.0000 C   0  0  0  0  0  0  0  0  0  0  0  0
    3.7320   -0.7500    0.0000 C   0  0  0  0  0  0  0  0  0  0  0  0
    2.8660   -2.2500    0.0000 C   0  0  0  0  0  0  0  0  0  0  0  0
    2.8660    2.3700    0.0000 H   0  0  0  0  0  0  0  0  0  0  0  0
    4.0420    1.7131    0.0000 H   0  0  0  0  0  0  0  0  0  0  0  0
    4.2690    2.5600    0.0000 H   0  0  0  0  0  0  0  0  0  0  0  0
    3.4220    2.7869    0.0000 H   0  0  0  0  0  0  0  0  0  0  0  0
    2.3100    2.7869    0.0000 H   0  0  0  0  0  0  0  0  0  0  0  0
    1.4631    2.5600    0.0000 H   0  0  0  0  0  0  0  0  0  0  0  0
    1.6900    1.7131    0.0000 H   0  0  0  0  0  0  0  0  0  0  0  0
    1.4631    0.5600    0.0000 H   0  0  0  0  0  0  0  0  0  0  0  0
    4.2690    0.5600    0.0000 H   0  0  0  0  0  0  0  0  0  0  0  0
    1.4631   -1.0600    0.0000 H   0  0  0  0  0  0  0  0  0  0  0  0
    4.2690   -1.0600    0.0000 H   0  0  0  0  0  0  0  0  0  0  0  0
    2.2460   -2.2500    0.0000 H   0  0  0  0  0  0  0  0  0  0  0  0
    2.8660   -2.8700    0.0000 H   0  0  0  0  0  0  0  0  0  0  0  0
    3.4860   -2.2500    0.0000 H   0  0  0  0  0  0  0  0  0  0  0  0
  1  2  1  0  0  0  0
  1  3  1  0  0  0  0
  1  4  1  0  0  0  0
  1 11  1  0  0  0  0
  2  5  2  0  0  0  0
  2  6  1  0  0  0  0
  3 12  1  0  0  0  0
  3 13  1  0  0  0  0
  3 14  1  0  0  0  0
  4 15  1  0  0  0  0
  4 16  1  0  0  0  0
  4 17  1  0  0  0  0
  5  8  1  0  0  0  0
  5 18  1  0  0  0  0
  6  9  2  0  0  0  0
  6 19  1  0  0  0  0
  7  8  2  0  0  0  0
  7  9  1  0  0  0  0
  7 10  1  0  0  0  0
  8 20  1  0  0  0  0
  9 21  1  0  0  0  0
 10 22  1  0  0  0  0
 10 23  1  0  0  0  0
 10 24  1  0  0  0  0
M  END
> <PUBCHEM_COMPOUND_CID>
7463

> <PUBCHEM_COMPOUND_CANONICALIZED>
1

> <PUBCHEM_CACTVS_COMPLEXITY>
86.2

> <PUBCHEM_CACTVS_HBOND_ACCEPTOR>
0

> <PUBCHEM_CACTVS_HBOND_DONOR>
0

> <PUBCHEM_CACTVS_ROTATABLE_BOND>
1

> <PUBCHEM_CACTVS_SUBSKEYS>
AAADccBwAAAAAAAAAAAAAAAAAAAAAAAAAAAwAAAAAAAAAAABAAAAGAAAAAAADQCAGAAyAIAAAACAAiBCAAACAAAgAAAIiAAAAIgIICKAERCAIAAggAAIiAcAgMAOwAAAAAAAAACAAAAAAAAAAAAAAAAAAA==

> <PUBCHEM_IUPAC_OPENEYE_NAME>
1-isopropyl-4-methyl-benzene

> <PUBCHEM_IUPAC_CAS_NAME>
1-methyl-4-propan-2-ylbenzene

> <PUBCHEM_IUPAC_NAME>
1-methyl-4-propan-2-ylbenzene

> <PUBCHEM_IUPAC_SYSTEMATIC_NAME>
1-methyl-4-propan-2-yl-benzene

> <PUBCHEM_IUPAC_TRADITIONAL_NAME>
p-cymene

> <PUBCHEM_IUPAC_INCHI>
InChI=1S/C10H14/c1-8(2)10-6-4-9(3)5-7-10/h4-8H,1-3H3

> <PUBCHEM_IUPAC_INCHIKEY>
HFPZCAJZSCWRBC-UHFFFAOYSA-N

> <PUBCHEM_XLOGP3>
4.1

> <PUBCHEM_EXACT_MASS>
134.11

> <PUBCHEM_MOLECULAR_FORMULA>
C10H14

> <PUBCHEM_MOLECULAR_WEIGHT>
134.222

> <PUBCHEM_OPENEYE_CAN_SMILES>
CC1=CC=C(C=C1)C(C)C

> <PUBCHEM_OPENEYE_ISO_SMILES>
CC1=CC=C(C=C1)C(C)C

> <PUBCHEM_CACTVS_TPSA>
0

> <PUBCHEM_MONOISOTOPIC_WEIGHT>
134.11

> <PUBCHEM_TOTAL_CHARGE>
0

> <PUBCHEM_HEAVY_ATOM_COUNT>
10

> <PUBCHEM_ATOM_DEF_STEREO_COUNT>
0

> <PUBCHEM_ATOM_UDEF_STEREO_COUNT>
0

> <PUBCHEM_BOND_DEF_STEREO_COUNT>
0

> <PUBCHEM_BOND_UDEF_STEREO_COUNT>
0

> <PUBCHEM_ISOTOPIC_ATOM_COUNT>
0

> <PUBCHEM_COMPONENT_COUNT>
1

> <PUBCHEM_CACTVS_TAUTO_COUNT>
-1

> <PUBCHEM_COORDINATE_TYPE>
1
5
255

> <PUBCHEM_BONDANNOTATIONS>
2  5  8
2  6  8
5  8  8
6  9  8
7  8  8
7  9  8

$$$$
31253
  -OEChem-02201912152D

 26 25  0     0  0  0  0  0  0999 V2000
    5.4641    0.2500    0.0000 C   0  0  0  0  0  0  0  0  0  0  0  0
    4.5981    0.7500    0.0000 C   0  0  0  0  0  0  0  0  0  0  0  0
    6.3301    0.7500    0.0000 C   0  0  0  0  0  0  0  0  0  0  0  0
    7.1962    0.2500    0.0000 C   0  0  0  0  0  0  0  0  0  0  0  0
    3.7320    0.2500    0.0000 C   0  0  0  0  0  0  0  0  0  0  0  0
    8.0622    0.7500    0.0000 C   0  0  0  0  0  0  0  0  0  0  0  0
    7.1962   -0.7500    0.0000 C   0  0  0  0  0  0  0  0  0  0  0  0
    2.8660    0.7500    0.0000 C   0  0  0  0  0  0  0  0  0  0  0  0
    3.7320   -0.7500    0.0000 C   0  0  0  0  0  0  0  0  0  0  0  0
    2.0000    0.2500    0.0000 C   0  0  0  0  0  0  0  0  0  0  0  0
    5.0656   -0.2249    0.0000 H   0  0  0  0  0  0  0  0  0  0  0  0
    5.8626   -0.2249    0.0000 H   0  0  0  0  0  0  0  0  0  0  0  0
    4.9966    1.2250    0.0000 H   0  0  0  0  0  0  0  0  0  0  0  0
    4.1996    1.2250    0.0000 H   0  0  0  0  0  0  0  0  0  0  0  0
    6.3301    1.3700    0.0000 H   0  0  0  0  0  0  0  0  0  0  0  0
    6.5762   -0.7500    0.0000 H   0  0  0  0  0  0  0  0  0  0  0  0
    7.1962   -1.3700    0.0000 H   0  0  0  0  0  0  0  0  0  0  0  0
    8.3722    0.2131    0.0000 H   0  0  0  0  0  0  0  0  0  0  0  0
    8.5991    1.0600    0.0000 H   0  0  0  0  0  0  0  0  0  0  0  0
    7.7522    1.2869    0.0000 H   0  0  0  0  0  0  0  0  0  0  0  0
    7.8162   -0.7500    0.0000 H   0  0  0  0  0  0  0  0  0  0  0  0
    2.8660    1.3700    0.0000 H   0  0  0  0  0  0  0  0  0  0  0  0
    3.1951   -1.0600    0.0000 H   0  0  0  0  0  0  0  0  0  0  0  0
    4.2690   -1.0600    0.0000 H   0  0  0  0  0  0  0  0  0  0  0  0
    1.4631    0.5600    0.0000 H   0  0  0  0  0  0  0  0  0  0  0  0
    2.0000   -0.3700    0.0000 H   0  0  0  0  0  0  0  0  0  0  0  0
  1  2  1  0  0  0  0
  1  3  1  0  0  0  0
  1 11  1  0  0  0  0
  1 12  1  0  0  0  0
  2  5  1  0  0  0  0
  2 13  1  0  0  0  0
  2 14  1  0  0  0  0
  3  4  2  0  0  0  0
  3 15  1  0  0  0  0
  4  6  1  0  0  0  0
  4  7  1  0  0  0  0
  5  8  1  0  0  0  0
  5  9  2  0  0  0  0
  6 18  1  0  0  0  0
  6 19  1  0  0  0  0
  6 20  1  0  0  0  0
  7 16  1  0  0  0  0
  7 17  1  0  0  0  0
  7 21  1  0  0  0  0
  8 10  2  0  0  0  0
  8 22  1  0  0  0  0
  9 23  1  0  0  0  0
  9 24  1  0  0  0  0
 10 25  1  0  0  0  0
 10 26  1  0  0  0  0
M  END
> <PUBCHEM_COMPOUND_CID>
31253

> <PUBCHEM_COMPOUND_CANONICALIZED>
1

> <PUBCHEM_CACTVS_COMPLEXITY>
145

> <PUBCHEM_CACTVS_HBOND_ACCEPTOR>
0

> <PUBCHEM_CACTVS_HBOND_DONOR>
0

> <PUBCHEM_CACTVS_ROTATABLE_BOND>
4

> <PUBCHEM_CACTVS_SUBSKEYS>
AAADceBwAAAAAAAAAAAAAAAAAAAAAAAAAAAAAAAAAAAAAAAAAAAAGAAAAAAADACAAAACAAAAAACAAiBCAAAAAAAgAAAICAAAAAgIAAIAAQAAAAAAgAAIAAIAAAAAAAAAAAAAAAAAAAAAAAAAAAAAAAAAAA==

> <PUBCHEM_IUPAC_OPENEYE_NAME>
7-methyl-3-methylene-octa-1,6-diene

> <PUBCHEM_IUPAC_CAS_NAME>
7-methyl-3-methyleneocta-1,6-diene

> <PUBCHEM_IUPAC_NAME>
7-methyl-3-methylideneocta-1,6-diene

> <PUBCHEM_IUPAC_SYSTEMATIC_NAME>
7-methyl-3-methylidene-octa-1,6-diene

> <PUBCHEM_IUPAC_TRADITIONAL_NAME>
7-methyl-3-methylene-octa-1,6-diene

> <PUBCHEM_IUPAC_INCHI>
InChI=1S/C10H16/c1-5-10(4)8-6-7-9(2)3/h5,7H,1,4,6,8H2,2-3H3

> <PUBCHEM_IUPAC_INCHIKEY>
UAHWPYUMFXYFJY-UHFFFAOYSA-N

> <PUBCHEM_XLOGP3_AA>
4.3

> <PUBCHEM_EXACT_MASS>
136.125

> <PUBCHEM_MOLECULAR_FORMULA>
C10H16

> <PUBCHEM_MOLECULAR_WEIGHT>
136.238

> <PUBCHEM_OPENEYE_CAN_SMILES>
CC(=CCCC(=C)C=C)C

> <PUBCHEM_OPENEYE_ISO_SMILES>
CC(=CCCC(=C)C=C)C

> <PUBCHEM_CACTVS_TPSA>
0

> <PUBCHEM_MONOISOTOPIC_WEIGHT>
136.125

> <PUBCHEM_TOTAL_CHARGE>
0

> <PUBCHEM_HEAVY_ATOM_COUNT>
10

> <PUBCHEM_ATOM_DEF_STEREO_COUNT>
0

> <PUBCHEM_ATOM_UDEF_STEREO_COUNT>
0

> <PUBCHEM_BOND_DEF_STEREO_COUNT>
0

> <PUBCHEM_BOND_UDEF_STEREO_COUNT>
0

> <PUBCHEM_ISOTOPIC_ATOM_COUNT>
0

> <PUBCHEM_COMPONENT_COUNT>
1

> <PUBCHEM_CACTVS_TAUTO_COUNT>
-1

> <PUBCHEM_COORDINATE_TYPE>
1
5
255

$$$$
64685
  -OEChem-02201912152D

 29 30  0     1  0  0  0  0  0999 V2000
    2.6176   -2.1937    0.0000 O   0  0  0  0  0  0  0  0  0  0  0  0
    4.4130   -0.6953    0.0000 C   0  0  3  0  0  0  0  0  0  0  0  0
    3.9352    1.2532    0.0000 C   0  0  0  0  0  0  0  0  0  0  0  0
    4.6718    0.2706    0.0000 C   0  0  3  0  0  0  0  0  0  0  0  0
    3.0403   -1.2874    0.0000 C   0  0  3  0  0  0  0  0  0  0  0  0
    5.8119   -1.2042    0.0000 C   0  0  0  0  0  0  0  0  0  0  0  0
    2.6982   -0.3477    0.0000 C   0  0  0  0  0  0  0  0  0  0  0  0
    6.0707   -0.2382    0.0000 C   0  0  0  0  0  0  0  0  0  0  0  0
    4.1541   -1.6613    0.0000 C   0  0  0  0  0  0  0  0  0  0  0  0
    4.0397    2.2477    0.0000 C   0  0  0  0  0  0  0  0  0  0  0  0
    3.0216    1.6599    0.0000 C   0  0  0  0  0  0  0  0  0  0  0  0
    4.6578   -0.3493    0.0000 H   0  0  0  0  0  0  0  0  0  0  0  0
    3.4722   -1.7321    0.0000 H   0  0  0  0  0  0  0  0  0  0  0  0
    5.6170   -1.7927    0.0000 H   0  0  0  0  0  0  0  0  0  0  0  0
    6.4059   -1.3819    0.0000 H   0  0  0  0  0  0  0  0  0  0  0  0
    2.5040    0.2411    0.0000 H   0  0  0  0  0  0  0  0  0  0  0  0
    2.1125   -0.5509    0.0000 H   0  0  0  0  0  0  0  0  0  0  0  0
    6.6647   -0.4160    0.0000 H   0  0  0  0  0  0  0  0  0  0  0  0
    6.2656    0.3503    0.0000 H   0  0  0  0  0  0  0  0  0  0  0  0
    3.5553   -1.5008    0.0000 H   0  0  0  0  0  0  0  0  0  0  0  0
    3.9937   -2.2602    0.0000 H   0  0  0  0  0  0  0  0  0  0  0  0
    4.7530   -1.8217    0.0000 H   0  0  0  0  0  0  0  0  0  0  0  0
    4.6563    2.1829    0.0000 H   0  0  0  0  0  0  0  0  0  0  0  0
    4.1045    2.8643    0.0000 H   0  0  0  0  0  0  0  0  0  0  0  0
    3.4231    2.3125    0.0000 H   0  0  0  0  0  0  0  0  0  0  0  0
    3.2738    2.2263    0.0000 H   0  0  0  0  0  0  0  0  0  0  0  0
    2.4552    1.9121    0.0000 H   0  0  0  0  0  0  0  0  0  0  0  0
    2.7694    1.0935    0.0000 H   0  0  0  0  0  0  0  0  0  0  0  0
    2.0000   -2.2477    0.0000 H   0  0  0  0  0  0  0  0  0  0  0  0
  1  5  1  0  0  0  0
  1 29  1  0  0  0  0
  2  3  1  0  0  0  0
  2  5  1  0  0  0  0
  2  6  1  0  0  0  0
  2  9  1  0  0  0  0
  3  4  1  0  0  0  0
  3 10  1  0  0  0  0
  3 11  1  0  0  0  0
  4  7  1  0  0  0  0
  4  8  1  0  0  0  0
  4 12  1  0  0  0  0
  5  7  1  0  0  0  0
  5 13  1  0  0  0  0
  6  8  1  0  0  0  0
  6 14  1  0  0  0  0
  6 15  1  0  0  0  0
  7 16  1  0  0  0  0
  7 17  1  0  0  0  0
  8 18  1  0  0  0  0
  8 19  1  0  0  0  0
  9 20  1  0  0  0  0
  9 21  1  0  0  0  0
  9 22  1  0  0  0  0
 10 23  1  0  0  0  0
 10 24  1  0  0  0  0
 10 25  1  0  0  0  0
 11 26  1  0  0  0  0
 11 27  1  0  0  0  0
 11 28  1  0  0  0  0
M  END
> <PUBCHEM_COMPOUND_CID>
64685

> <PUBCHEM_COMPOUND_CANONICALIZED>
1

> <PUBCHEM_CACTVS_COMPLEXITY>
185

> <PUBCHEM_CACTVS_HBOND_ACCEPTOR>
1

> <PUBCHEM_CACTVS_HBOND_DONOR>
1

> <PUBCHEM_CACTVS_ROTATABLE_BOND>
0

> <PUBCHEM_CACTVS_SUBSKEYS>
AAADceBwIAAAAAAAAAAAAAAAAAAAAYMAAAAwAAAAAAAAAAAAAAAAGgAACAAADxSggAICAAAAAgAAAAAAAAAAAAAAAAAAAAAAAAAAEAIAAAAAQAAEAAAAAAGAwPAPgAAAAAAAAACAAAIAABAAAYAADAAAAA==

> <PUBCHEM_IUPAC_OPENEYE_NAME>
1,7,7-trimethylnorbornan-2-ol

> <PUBCHEM_IUPAC_CAS_NAME>
1,7,7-trimethyl-2-bicyclo[2.2.1]heptanol

> <PUBCHEM_IUPAC_NAME>
1,7,7-trimethylbicyclo[2.2.1]heptan-2-ol

> <PUBCHEM_IUPAC_SYSTEMATIC_NAME>
1,7,7-trimethylbicyclo[2.2.1]heptan-2-ol

> <PUBCHEM_IUPAC_TRADITIONAL_NAME>
1,7,7-trimethylnorbornan-2-ol

> <PUBCHEM_IUPAC_INCHI>
InChI=1S/C10H18O/c1-9(2)7-4-5-10(9,3)8(11)6-7/h7-8,11H,4-6H2,1-3H3

> <PUBCHEM_IUPAC_INCHIKEY>
DTGKSKDOIYIVQL-UHFFFAOYSA-N

> <PUBCHEM_XLOGP3>
2.7

> <PUBCHEM_EXACT_MASS>
154.136

> <PUBCHEM_MOLECULAR_FORMULA>
C10H18O

> <PUBCHEM_MOLECULAR_WEIGHT>
154.253

> <PUBCHEM_OPENEYE_CAN_SMILES>
CC1(C2CCC1(C(C2)O)C)C

> <PUBCHEM_OPENEYE_ISO_SMILES>
CC1(C2CCC1(C(C2)O)C)C

> <PUBCHEM_CACTVS_TPSA>
20.2

> <PUBCHEM_MONOISOTOPIC_WEIGHT>
154.136

> <PUBCHEM_TOTAL_CHARGE>
0

> <PUBCHEM_HEAVY_ATOM_COUNT>
11

> <PUBCHEM_ATOM_DEF_STEREO_COUNT>
0

> <PUBCHEM_ATOM_UDEF_STEREO_COUNT>
3

> <PUBCHEM_BOND_DEF_STEREO_COUNT>
0

> <PUBCHEM_BOND_UDEF_STEREO_COUNT>
0

> <PUBCHEM_ISOTOPIC_ATOM_COUNT>
0

> <PUBCHEM_COMPONENT_COUNT>
1

> <PUBCHEM_CACTVS_TAUTO_COUNT>
-1

> <PUBCHEM_COORDINATE_TYPE>
1
5
255

> <PUBCHEM_BONDANNOTATIONS>
5  1  3
2  3  3
4  3  3

$$$$
6448
  -OEChem-02201912152D

 34 35  0     1  0  0  0  0  0999 V2000
    3.5698   -1.7240    0.0000 O   0  0  0  0  0  0  0  0  0  0  0  0
    2.0000   -0.9920    0.0000 O   0  0  0  0  0  0  0  0  0  0  0  0
    5.3651   -0.2256    0.0000 C   0  0  3  0  0  0  0  0  0  0  0  0
    4.8873    1.7229    0.0000 C   0  0  0  0  0  0  0  0  0  0  0  0
    5.6239    0.7403    0.0000 C   0  0  3  0  0  0  0  0  0  0  0  0
    3.9924   -0.8177    0.0000 C   0  0  3  0  0  0  0  0  0  0  0  0
    6.7640   -0.7345    0.0000 C   0  0  0  0  0  0  0  0  0  0  0  0
    3.6504    0.1220    0.0000 C   0  0  0  0  0  0  0  0  0  0  0  0
    7.0228    0.2315    0.0000 C   0  0  0  0  0  0  0  0  0  0  0  0
    5.1063   -1.1916    0.0000 C   0  0  0  0  0  0  0  0  0  0  0  0
    4.9918    2.7174    0.0000 C   0  0  0  0  0  0  0  0  0  0  0  0
    3.9738    2.1296    0.0000 C   0  0  0  0  0  0  0  0  0  0  0  0
    2.5736   -1.8111    0.0000 C   0  0  0  0  0  0  0  0  0  0  0  0
    2.1510   -2.7174    0.0000 C   0  0  0  0  0  0  0  0  0  0  0  0
    5.6047   -0.1095    0.0000 H   0  0  0  0  0  0  0  0  0  0  0  0
    4.5846   -1.4274    0.0000 H   0  0  0  0  0  0  0  0  0  0  0  0
    6.5691   -1.3230    0.0000 H   0  0  0  0  0  0  0  0  0  0  0  0
    7.3580   -0.9122    0.0000 H   0  0  0  0  0  0  0  0  0  0  0  0
    3.4561    0.7108    0.0000 H   0  0  0  0  0  0  0  0  0  0  0  0
    3.0646   -0.0812    0.0000 H   0  0  0  0  0  0  0  0  0  0  0  0
    7.6168    0.0537    0.0000 H   0  0  0  0  0  0  0  0  0  0  0  0
    7.2178    0.8200    0.0000 H   0  0  0  0  0  0  0  0  0  0  0  0
    4.5074   -1.0311    0.0000 H   0  0  0  0  0  0  0  0  0  0  0  0
    4.9458   -1.7904    0.0000 H   0  0  0  0  0  0  0  0  0  0  0  0
    5.7052   -1.3520    0.0000 H   0  0  0  0  0  0  0  0  0  0  0  0
    4.2259    2.6960    0.0000 H   0  0  0  0  0  0  0  0  0  0  0  0
    5.6084    2.6526    0.0000 H   0  0  0  0  0  0  0  0  0  0  0  0
    5.0566    3.3340    0.0000 H   0  0  0  0  0  0  0  0  0  0  0  0
    4.3752    2.7822    0.0000 H   0  0  0  0  0  0  0  0  0  0  0  0
    3.4074    2.3818    0.0000 H   0  0  0  0  0  0  0  0  0  0  0  0
    3.7216    1.5632    0.0000 H   0  0  0  0  0  0  0  0  0  0  0  0
    1.5890   -2.4554    0.0000 H   0  0  0  0  0  0  0  0  0  0  0  0
    1.8889   -3.2793    0.0000 H   0  0  0  0  0  0  0  0  0  0  0  0
    2.7129   -2.9794    0.0000 H   0  0  0  0  0  0  0  0  0  0  0  0
  1  6  1  0  0  0  0
  1 13  1  0  0  0  0
  2 13  2  0  0  0  0
  3  4  1  0  0  0  0
  3  6  1  0  0  0  0
  3  7  1  0  0  0  0
  3 10  1  0  0  0  0
  4  5  1  0  0  0  0
  4 11  1  0  0  0  0
  4 12  1  0  0  0  0
  5  8  1  0  0  0  0
  5  9  1  0  0  0  0
  5 15  1  0  0  0  0
  6  8  1  0  0  0  0
  6 16  1  0  0  0  0
  7  9  1  0  0  0  0
  7 17  1  0  0  0  0
  7 18  1  0  0  0  0
  8 19  1  0  0  0  0
  8 20  1  0  0  0  0
  9 21  1  0  0  0  0
  9 22  1  0  0  0  0
 10 23  1  0  0  0  0
 10 24  1  0  0  0  0
 10 25  1  0  0  0  0
 11 27  1  0  0  0  0
 11 28  1  0  0  0  0
 11 29  1  0  0  0  0
 12 26  1  0  0  0  0
 12 30  1  0  0  0  0
 12 31  1  0  0  0  0
 13 14  1  0  0  0  0
 14 32  1  0  0  0  0
 14 33  1  0  0  0  0
 14 34  1  0  0  0  0
M  END
> <PUBCHEM_COMPOUND_CID>
6448

> <PUBCHEM_COMPOUND_CANONICALIZED>
1

> <PUBCHEM_CACTVS_COMPLEXITY>
270

> <PUBCHEM_CACTVS_HBOND_ACCEPTOR>
2

> <PUBCHEM_CACTVS_HBOND_DONOR>
0

> <PUBCHEM_CACTVS_ROTATABLE_BOND>
2

> <PUBCHEM_CACTVS_SUBSKEYS>
AAADceBwMAAAAAAAAAAAAAAAAAAAAYMAAAAwAAAAAAAAAAAAAAAAGgAAAAAADxSggAICCAAABAAIAACQCAAAAAAAAAAAAAAAAAAAAAIAAAACAAAEAAAAAAGAwPAPgAAAAAAAAACAAAIAABAAAYAADAAAAA==

> <PUBCHEM_IUPAC_OPENEYE_NAME>
(1,7,7-trimethylnorbornan-2-yl) acetate

> <PUBCHEM_IUPAC_CAS_NAME>
acetic acid (1,7,7-trimethyl-2-bicyclo[2.2.1]heptanyl) ester

> <PUBCHEM_IUPAC_NAME>
(1,7,7-trimethyl-2-bicyclo[2.2.1]heptanyl) acetate

> <PUBCHEM_IUPAC_SYSTEMATIC_NAME>
(1,7,7-trimethyl-2-bicyclo[2.2.1]heptanyl) ethanoate

> <PUBCHEM_IUPAC_TRADITIONAL_NAME>
acetic acid 2-bornyl ester

> <PUBCHEM_IUPAC_INCHI>
InChI=1S/C12H20O2/c1-8(13)14-10-7-9-5-6-12(10,4)11(9,2)3/h9-10H,5-7H2,1-4H3

> <PUBCHEM_IUPAC_INCHIKEY>
KGEKLUUHTZCSIP-UHFFFAOYSA-N

> <PUBCHEM_XLOGP3>
3.3

> <PUBCHEM_EXACT_MASS>
196.146

> <PUBCHEM_MOLECULAR_FORMULA>
C12H20O2

> <PUBCHEM_MOLECULAR_WEIGHT>
196.29

> <PUBCHEM_OPENEYE_CAN_SMILES>
CC(=O)OC1CC2CCC1(C2(C)C)C

> <PUBCHEM_OPENEYE_ISO_SMILES>
CC(=O)OC1CC2CCC1(C2(C)C)C

> <PUBCHEM_CACTVS_TPSA>
26.3

> <PUBCHEM_MONOISOTOPIC_WEIGHT>
196.146

> <PUBCHEM_TOTAL_CHARGE>
0

> <PUBCHEM_HEAVY_ATOM_COUNT>
14

> <PUBCHEM_ATOM_DEF_STEREO_COUNT>
0

> <PUBCHEM_ATOM_UDEF_STEREO_COUNT>
3

> <PUBCHEM_BOND_DEF_STEREO_COUNT>
0

> <PUBCHEM_BOND_UDEF_STEREO_COUNT>
0

> <PUBCHEM_ISOTOPIC_ATOM_COUNT>
0

> <PUBCHEM_COMPONENT_COUNT>
1

> <PUBCHEM_CACTVS_TAUTO_COUNT>
-1

> <PUBCHEM_COORDINATE_TYPE>
1
5
255

> <PUBCHEM_BONDANNOTATIONS>
3  10  3
5  15  3
6  16  3

$$$$
11142
  -OEChem-02201912152D

 26 26  0     1  0  0  0  0  0999 V2000
    2.8660    0.7500    0.0000 C   0  0  3  0  0  0  0  0  0  0  0  0
    2.8660    1.7500    0.0000 C   0  0  0  0  0  0  0  0  0  0  0  0
    2.0000    0.2500    0.0000 C   0  0  0  0  0  0  0  0  0  0  0  0
    2.0000   -0.7500    0.0000 C   0  0  0  0  0  0  0  0  0  0  0  0
    3.7320    0.2500    0.0000 C   0  0  0  0  0  0  0  0  0  0  0  0
    3.7320    2.2500    0.0000 C   0  0  0  0  0  0  0  0  0  0  0  0
    2.0000    2.2500    0.0000 C   0  0  0  0  0  0  0  0  0  0  0  0
    2.8660   -1.2500    0.0000 C   0  0  0  0  0  0  0  0  0  0  0  0
    3.7320   -0.7500    0.0000 C   0  0  0  0  0  0  0  0  0  0  0  0
    2.8660   -2.2500    0.0000 C   0  0  0  0  0  0  0  0  0  0  0  0
    3.4030    1.0600    0.0000 H   0  0  0  0  0  0  0  0  0  0  0  0
    2.8660    2.3700    0.0000 H   0  0  0  0  0  0  0  0  0  0  0  0
    1.7880    0.8326    0.0000 H   0  0  0  0  0  0  0  0  0  0  0  0
    1.3894    0.1423    0.0000 H   0  0  0  0  0  0  0  0  0  0  0  0
    1.3894   -0.6423    0.0000 H   0  0  0  0  0  0  0  0  0  0  0  0
    1.7880   -1.3326    0.0000 H   0  0  0  0  0  0  0  0  0  0  0  0
    4.2690    0.5600    0.0000 H   0  0  0  0  0  0  0  0  0  0  0  0
    4.0420    1.7131    0.0000 H   0  0  0  0  0  0  0  0  0  0  0  0
    4.2690    2.5600    0.0000 H   0  0  0  0  0  0  0  0  0  0  0  0
    3.4220    2.7869    0.0000 H   0  0  0  0  0  0  0  0  0  0  0  0
    2.3100    2.7869    0.0000 H   0  0  0  0  0  0  0  0  0  0  0  0
    1.4631    2.5600    0.0000 H   0  0  0  0  0  0  0  0  0  0  0  0
    1.6900    1.7131    0.0000 H   0  0  0  0  0  0  0  0  0  0  0  0
    4.2690   -1.0600    0.0000 H   0  0  0  0  0  0  0  0  0  0  0  0
    2.3291   -2.5600    0.0000 H   0  0  0  0  0  0  0  0  0  0  0  0
    3.4030   -2.5600    0.0000 H   0  0  0  0  0  0  0  0  0  0  0  0
  1  2  1  0  0  0  0
  1  3  1  0  0  0  0
  1  5  1  0  0  0  0
  1 11  1  0  0  0  0
  2  6  1  0  0  0  0
  2  7  1  0  0  0  0
  2 12  1  0  0  0  0
  3  4  1  0  0  0  0
  3 13  1  0  0  0  0
  3 14  1  0  0  0  0
  4  8  1  0  0  0  0
  4 15  1  0  0  0  0
  4 16  1  0  0  0  0
  5  9  2  0  0  0  0
  5 17  1  0  0  0  0
  6 18  1  0  0  0  0
  6 19  1  0  0  0  0
  6 20  1  0  0  0  0
  7 21  1  0  0  0  0
  7 22  1  0  0  0  0
  7 23  1  0  0  0  0
  8  9  1  0  0  0  0
  8 10  2  0  0  0  0
  9 24  1  0  0  0  0
 10 25  1  0  0  0  0
 10 26  1  0  0  0  0
M  END
> <PUBCHEM_COMPOUND_CID>
11142

> <PUBCHEM_COMPOUND_CANONICALIZED>
1

> <PUBCHEM_CACTVS_COMPLEXITY>
151

> <PUBCHEM_CACTVS_HBOND_ACCEPTOR>
0

> <PUBCHEM_CACTVS_HBOND_DONOR>
0

> <PUBCHEM_CACTVS_ROTATABLE_BOND>
1

> <PUBCHEM_CACTVS_SUBSKEYS>
AAADceBwAAAAAAAAAAAAAAAAAAAAAAAAAAAgAAAAAAAAAAAAAAAAGAAAAAAADQCAAAACAAAAAACAAiBCAAAAAAAgAAAICAAAAAgIAAIAAQAAAAAAgAAIgAMAgEAOgAAAAAAAAAAAAAAAAAAAAAAAAAAAAA==

> <PUBCHEM_IUPAC_OPENEYE_NAME>
3-isopropyl-6-methylene-cyclohexene

> <PUBCHEM_IUPAC_CAS_NAME>
3-methylene-6-propan-2-ylcyclohexene

> <PUBCHEM_IUPAC_NAME>
3-methylidene-6-propan-2-ylcyclohexene

> <PUBCHEM_IUPAC_SYSTEMATIC_NAME>
3-methylidene-6-propan-2-yl-cyclohexene

> <PUBCHEM_IUPAC_TRADITIONAL_NAME>
3-isopropyl-6-methylene-cyclohexene

> <PUBCHEM_IUPAC_INCHI>
InChI=1S/C10H16/c1-8(2)10-6-4-9(3)5-7-10/h4,6,8,10H,3,5,7H2,1-2H3

> <PUBCHEM_IUPAC_INCHIKEY>
LFJQCDVYDGGFCH-UHFFFAOYSA-N

> <PUBCHEM_XLOGP3_AA>
3.4

> <PUBCHEM_EXACT_MASS>
136.125

> <PUBCHEM_MOLECULAR_FORMULA>
C10H16

> <PUBCHEM_MOLECULAR_WEIGHT>
136.238

> <PUBCHEM_OPENEYE_CAN_SMILES>
CC(C)C1CCC(=C)C=C1

> <PUBCHEM_OPENEYE_ISO_SMILES>
CC(C)C1CCC(=C)C=C1

> <PUBCHEM_CACTVS_TPSA>
0

> <PUBCHEM_MONOISOTOPIC_WEIGHT>
136.125

> <PUBCHEM_TOTAL_CHARGE>
0

> <PUBCHEM_HEAVY_ATOM_COUNT>
10

> <PUBCHEM_ATOM_DEF_STEREO_COUNT>
0

> <PUBCHEM_ATOM_UDEF_STEREO_COUNT>
1

> <PUBCHEM_BOND_DEF_STEREO_COUNT>
0

> <PUBCHEM_BOND_UDEF_STEREO_COUNT>
0

> <PUBCHEM_ISOTOPIC_ATOM_COUNT>
0

> <PUBCHEM_COMPONENT_COUNT>
1

> <PUBCHEM_CACTVS_TAUTO_COUNT>
-1

> <PUBCHEM_COORDINATE_TYPE>
1
5
255

> <PUBCHEM_BONDANNOTATIONS>
1  2  3

$$$$
14896
  -OEChem-02201912152D

 26 27  0     1  0  0  0  0  0999 V2000
    5.4490   -0.0329    0.0000 C   0  0  0  0  0  0  0  0  0  0  0  0
    4.3089    0.9242    0.0000 C   0  0  3  0  0  0  0  0  0  0  0  0
    4.0501   -0.0417    0.0000 C   0  0  3  0  0  0  0  0  0  0  0  0
    3.5723    1.9068    0.0000 C   0  0  0  0  0  0  0  0  0  0  0  0
    2.2756    0.6130    0.0000 C   0  0  0  0  0  0  0  0  0  0  0  0
    2.8290   -0.9074    0.0000 C   0  0  0  0  0  0  0  0  0  0  0  0
    2.0000   -0.3482    0.0000 C   0  0  0  0  0  0  0  0  0  0  0  0
    5.9490   -0.8990    0.0000 C   0  0  0  0  0  0  0  0  0  0  0  0
    6.3150    0.4671    0.0000 C   0  0  0  0  0  0  0  0  0  0  0  0
    2.8639   -1.9068    0.0000 C   0  0  0  0  0  0  0  0  0  0  0  0
    4.7592    1.3504    0.0000 H   0  0  0  0  0  0  0  0  0  0  0  0
    4.2401   -0.6319    0.0000 H   0  0  0  0  0  0  0  0  0  0  0  0
    3.8901    2.4392    0.0000 H   0  0  0  0  0  0  0  0  0  0  0  0
    2.9591    1.9988    0.0000 H   0  0  0  0  0  0  0  0  0  0  0  0
    2.2706    1.2330    0.0000 H   0  0  0  0  0  0  0  0  0  0  0  0
    1.6613    0.6968    0.0000 H   0  0  0  0  0  0  0  0  0  0  0  0
    1.4252   -0.1160    0.0000 H   0  0  0  0  0  0  0  0  0  0  0  0
    1.7089   -0.8956    0.0000 H   0  0  0  0  0  0  0  0  0  0  0  0
    6.6250   -0.0699    0.0000 H   0  0  0  0  0  0  0  0  0  0  0  0
    6.8520    0.7771    0.0000 H   0  0  0  0  0  0  0  0  0  0  0  0
    6.0050    1.0040    0.0000 H   0  0  0  0  0  0  0  0  0  0  0  0
    5.4121   -1.2090    0.0000 H   0  0  0  0  0  0  0  0  0  0  0  0
    6.2590   -1.4359    0.0000 H   0  0  0  0  0  0  0  0  0  0  0  0
    6.4859   -0.5890    0.0000 H   0  0  0  0  0  0  0  0  0  0  0  0
    2.3382   -2.2354    0.0000 H   0  0  0  0  0  0  0  0  0  0  0  0
    3.4114   -2.1979    0.0000 H   0  0  0  0  0  0  0  0  0  0  0  0
  1  2  1  0  0  0  0
  1  3  1  0  0  0  0
  1  8  1  0  0  0  0
  1  9  1  0  0  0  0
  2  4  1  0  0  0  0
  2  5  1  0  0  0  0
  2 11  1  0  0  0  0
  3  4  1  0  0  0  0
  3  6  1  0  0  0  0
  3 12  1  0  0  0  0
  4 13  1  0  0  0  0
  4 14  1  0  0  0  0
  5  7  1  0  0  0  0
  5 15  1  0  0  0  0
  5 16  1  0  0  0  0
  6  7  1  0  0  0  0
  6 10  2  0  0  0  0
  7 17  1  0  0  0  0
  7 18  1  0  0  0  0
  8 22  1  0  0  0  0
  8 23  1  0  0  0  0
  8 24  1  0  0  0  0
  9 19  1  0  0  0  0
  9 20  1  0  0  0  0
  9 21  1  0  0  0  0
 10 25  1  0  0  0  0
 10 26  1  0  0  0  0
M  END
> <PUBCHEM_COMPOUND_CID>
14896

> <PUBCHEM_COMPOUND_CANONICALIZED>
1

> <PUBCHEM_CACTVS_COMPLEXITY>
177

> <PUBCHEM_CACTVS_HBOND_ACCEPTOR>
0

> <PUBCHEM_CACTVS_HBOND_DONOR>
0

> <PUBCHEM_CACTVS_ROTATABLE_BOND>
0

> <PUBCHEM_CACTVS_SUBSKEYS>
AAADceBwAAAAAAAAAAAAAAAAAABgAAAAAAAwYAAAAAAAAAAAAAAAGAAAAAAADwCAAAACAAAAAACAAgBCAAAAAAAgAAAAAAAAAAgAAAIAAQAAAAAAgAAAAAEAgMAPgAAAAAAAAAAAAAAAACAAAAAAAAAAAA==

> <PUBCHEM_IUPAC_OPENEYE_NAME>
6,6-dimethyl-2-methylene-norpinane

> <PUBCHEM_IUPAC_CAS_NAME>
6,6-dimethyl-2-methylenebicyclo[3.1.1]heptane

> <PUBCHEM_IUPAC_NAME>
6,6-dimethyl-2-methylidenebicyclo[3.1.1]heptane

> <PUBCHEM_IUPAC_SYSTEMATIC_NAME>
6,6-dimethyl-2-methylidene-bicyclo[3.1.1]heptane

> <PUBCHEM_IUPAC_TRADITIONAL_NAME>
6,6-dimethyl-2-methylene-norpinane

> <PUBCHEM_IUPAC_INCHI>
InChI=1S/C10H16/c1-7-4-5-8-6-9(7)10(8,2)3/h8-9H,1,4-6H2,2-3H3

> <PUBCHEM_IUPAC_INCHIKEY>
WTARULDDTDQWMU-UHFFFAOYSA-N

> <PUBCHEM_XLOGP3_AA>
3.1

> <PUBCHEM_EXACT_MASS>
136.125

> <PUBCHEM_MOLECULAR_FORMULA>
C10H16

> <PUBCHEM_MOLECULAR_WEIGHT>
136.238

> <PUBCHEM_OPENEYE_CAN_SMILES>
CC1(C2CCC(=C)C1C2)C

> <PUBCHEM_OPENEYE_ISO_SMILES>
CC1(C2CCC(=C)C1C2)C

> <PUBCHEM_CACTVS_TPSA>
0

> <PUBCHEM_MONOISOTOPIC_WEIGHT>
136.125

> <PUBCHEM_TOTAL_CHARGE>
0

> <PUBCHEM_HEAVY_ATOM_COUNT>
10

> <PUBCHEM_ATOM_DEF_STEREO_COUNT>
0

> <PUBCHEM_ATOM_UDEF_STEREO_COUNT>
2

> <PUBCHEM_BOND_DEF_STEREO_COUNT>
0

> <PUBCHEM_BOND_UDEF_STEREO_COUNT>
0

> <PUBCHEM_ISOTOPIC_ATOM_COUNT>
0

> <PUBCHEM_COMPONENT_COUNT>
1

> <PUBCHEM_CACTVS_TAUTO_COUNT>
-1

> <PUBCHEM_COORDINATE_TYPE>
1
5
255

> <PUBCHEM_BONDANNOTATIONS>
2  1  3
3  1  3

$$$$
6616
  -OEChem-02201912152D

 26 27  0     1  0  0  0  0  0999 V2000
    3.7147   -0.2226    0.0000 C   0  0  3  0  0  0  0  0  0  0  0  0
    5.1137   -0.7314    0.0000 C   0  0  0  0  0  0  0  0  0  0  0  0
    3.9735    0.7433    0.0000 C   0  0  3  0  0  0  0  0  0  0  0  0
    3.2369    1.7259    0.0000 C   0  0  0  0  0  0  0  0  0  0  0  0
    2.3420   -0.8146    0.0000 C   0  0  0  0  0  0  0  0  0  0  0  0
    2.0000    0.1251    0.0000 C   0  0  0  0  0  0  0  0  0  0  0  0
    5.3725    0.2345    0.0000 C   0  0  0  0  0  0  0  0  0  0  0  0
    6.0272   -1.1382    0.0000 C   0  0  0  0  0  0  0  0  0  0  0  0
    5.0091   -1.7259    0.0000 C   0  0  0  0  0  0  0  0  0  0  0  0
    6.2385    0.7345    0.0000 C   0  0  0  0  0  0  0  0  0  0  0  0
    3.7395   -1.0722    0.0000 H   0  0  0  0  0  0  0  0  0  0  0  0
    3.9543   -0.1065    0.0000 H   0  0  0  0  0  0  0  0  0  0  0  0
    3.5547    2.2583    0.0000 H   0  0  0  0  0  0  0  0  0  0  0  0
    2.6238    1.8179    0.0000 H   0  0  0  0  0  0  0  0  0  0  0  0
    1.7636   -1.0379    0.0000 H   0  0  0  0  0  0  0  0  0  0  0  0
    2.5765   -1.3886    0.0000 H   0  0  0  0  0  0  0  0  0  0  0  0
    1.8057    0.7138    0.0000 H   0  0  0  0  0  0  0  0  0  0  0  0
    1.4142   -0.0781    0.0000 H   0  0  0  0  0  0  0  0  0  0  0  0
    5.7750   -1.7046    0.0000 H   0  0  0  0  0  0  0  0  0  0  0  0
    4.3925   -1.6611    0.0000 H   0  0  0  0  0  0  0  0  0  0  0  0
    4.9443   -2.3425    0.0000 H   0  0  0  0  0  0  0  0  0  0  0  0
    6.5936   -1.3903    0.0000 H   0  0  0  0  0  0  0  0  0  0  0  0
    6.2794   -0.5718    0.0000 H   0  0  0  0  0  0  0  0  0  0  0  0
    5.6257   -1.7908    0.0000 H   0  0  0  0  0  0  0  0  0  0  0  0
    6.7754    0.4245    0.0000 H   0  0  0  0  0  0  0  0  0  0  0  0
    6.2385    1.3545    0.0000 H   0  0  0  0  0  0  0  0  0  0  0  0
  1  2  1  0  0  0  0
  1  4  1  0  0  0  0
  1  5  1  0  0  0  0
  1 11  1  0  0  0  0
  2  7  1  0  0  0  0
  2  8  1  0  0  0  0
  2  9  1  0  0  0  0
  3  4  1  0  0  0  0
  3  6  1  0  0  0  0
  3  7  1  0  0  0  0
  3 12  1  0  0  0  0
  4 13  1  0  0  0  0
  4 14  1  0  0  0  0
  5  6  1  0  0  0  0
  5 15  1  0  0  0  0
  5 16  1  0  0  0  0
  6 17  1  0  0  0  0
  6 18  1  0  0  0  0
  7 10  2  0  0  0  0
  8 19  1  0  0  0  0
  8 22  1  0  0  0  0
  8 23  1  0  0  0  0
  9 20  1  0  0  0  0
  9 21  1  0  0  0  0
  9 24  1  0  0  0  0
 10 25  1  0  0  0  0
 10 26  1  0  0  0  0
M  END
> <PUBCHEM_COMPOUND_CID>
6616

> <PUBCHEM_COMPOUND_CANONICALIZED>
1

> <PUBCHEM_CACTVS_COMPLEXITY>
177

> <PUBCHEM_CACTVS_HBOND_ACCEPTOR>
0

> <PUBCHEM_CACTVS_HBOND_DONOR>
0

> <PUBCHEM_CACTVS_ROTATABLE_BOND>
0

> <PUBCHEM_CACTVS_SUBSKEYS>
AAADceBwAAAAAAAAAAAAAAAAAAAAAYMAAAAwAAAAAAAAAAAAAAAAGAAAAAAADwCAAAACAAAAAACAAgBCAAAAAAAgAAAAAAAAAAgAAAIAAQAAAAAAgAAAAAEAgMAPgAAAAAAAAAAAAAQAACAAAQAACAAAAA==

> <PUBCHEM_IUPAC_OPENEYE_NAME>
2,2-dimethyl-3-methylene-norbornane

> <PUBCHEM_IUPAC_CAS_NAME>
2,2-dimethyl-3-methylenebicyclo[2.2.1]heptane

> <PUBCHEM_IUPAC_NAME>
2,2-dimethyl-3-methylidenebicyclo[2.2.1]heptane

> <PUBCHEM_IUPAC_SYSTEMATIC_NAME>
2,2-dimethyl-3-methylidene-bicyclo[2.2.1]heptane

> <PUBCHEM_IUPAC_TRADITIONAL_NAME>
2,2-dimethyl-3-methylene-norbornane

> <PUBCHEM_IUPAC_INCHI>
InChI=1S/C10H16/c1-7-8-4-5-9(6-8)10(7,2)3/h8-9H,1,4-6H2,2-3H3

> <PUBCHEM_IUPAC_INCHIKEY>
CRPUJAZIXJMDBK-UHFFFAOYSA-N

> <PUBCHEM_XLOGP3_AA>
3.3

> <PUBCHEM_EXACT_MASS>
136.125

> <PUBCHEM_MOLECULAR_FORMULA>
C10H16

> <PUBCHEM_MOLECULAR_WEIGHT>
136.238

> <PUBCHEM_OPENEYE_CAN_SMILES>
CC1(C2CCC(C2)C1=C)C

> <PUBCHEM_OPENEYE_ISO_SMILES>
CC1(C2CCC(C2)C1=C)C

> <PUBCHEM_CACTVS_TPSA>
0

> <PUBCHEM_MONOISOTOPIC_WEIGHT>
136.125

> <PUBCHEM_TOTAL_CHARGE>
0

> <PUBCHEM_HEAVY_ATOM_COUNT>
10

> <PUBCHEM_ATOM_DEF_STEREO_COUNT>
0

> <PUBCHEM_ATOM_UDEF_STEREO_COUNT>
2

> <PUBCHEM_BOND_DEF_STEREO_COUNT>
0

> <PUBCHEM_BOND_UDEF_STEREO_COUNT>
0

> <PUBCHEM_ISOTOPIC_ATOM_COUNT>
0

> <PUBCHEM_COMPONENT_COUNT>
1

> <PUBCHEM_CACTVS_TAUTO_COUNT>
-1

> <PUBCHEM_COORDINATE_TYPE>
1
5
255

> <PUBCHEM_BONDANNOTATIONS>
1  11  3
3  12  3

$$$$
2537
  -OEChem-02201912152D

 27 28  0     1  0  0  0  0  0999 V2000
    5.6137   -2.1590    0.0000 O   0  0  0  0  0  0  0  0  0  0  0  0
    3.2369    1.1644    0.0000 C   0  0  0  0  0  0  0  0  0  0  0  0
    3.7147   -0.7841    0.0000 C   0  0  3  0  0  0  0  0  0  0  0  0
    3.9735    0.1818    0.0000 C   0  0  3  0  0  0  0  0  0  0  0  0
    2.3420   -1.3761    0.0000 C   0  0  0  0  0  0  0  0  0  0  0  0
    2.0000   -0.4364    0.0000 C   0  0  0  0  0  0  0  0  0  0  0  0
    5.3725   -0.3270    0.0000 C   0  0  0  0  0  0  0  0  0  0  0  0
    5.1137   -1.2929    0.0000 C   0  0  0  0  0  0  0  0  0  0  0  0
    3.3415    2.1590    0.0000 C   0  0  0  0  0  0  0  0  0  0  0  0
    2.3234    1.5712    0.0000 C   0  0  0  0  0  0  0  0  0  0  0  0
    3.4559   -1.7500    0.0000 C   0  0  0  0  0  0  0  0  0  0  0  0
    3.9543   -0.6680    0.0000 H   0  0  0  0  0  0  0  0  0  0  0  0
    1.7636   -1.5994    0.0000 H   0  0  0  0  0  0  0  0  0  0  0  0
    2.5765   -1.9501    0.0000 H   0  0  0  0  0  0  0  0  0  0  0  0
    1.8057    0.1523    0.0000 H   0  0  0  0  0  0  0  0  0  0  0  0
    1.4142   -0.6396    0.0000 H   0  0  0  0  0  0  0  0  0  0  0  0
    5.9664   -0.5048    0.0000 H   0  0  0  0  0  0  0  0  0  0  0  0
    5.5674    0.2616    0.0000 H   0  0  0  0  0  0  0  0  0  0  0  0
    2.5756    2.1376    0.0000 H   0  0  0  0  0  0  0  0  0  0  0  0
    3.9581    2.0942    0.0000 H   0  0  0  0  0  0  0  0  0  0  0  0
    3.4063    2.7756    0.0000 H   0  0  0  0  0  0  0  0  0  0  0  0
    1.7570    1.8233    0.0000 H   0  0  0  0  0  0  0  0  0  0  0  0
    2.7248    2.2238    0.0000 H   0  0  0  0  0  0  0  0  0  0  0  0
    2.0712    1.0048    0.0000 H   0  0  0  0  0  0  0  0  0  0  0  0
    2.8570   -1.5896    0.0000 H   0  0  0  0  0  0  0  0  0  0  0  0
    3.2954   -2.3489    0.0000 H   0  0  0  0  0  0  0  0  0  0  0  0
    4.0548   -1.9105    0.0000 H   0  0  0  0  0  0  0  0  0  0  0  0
  1  8  2  0  0  0  0
  2  3  1  0  0  0  0
  2  4  1  0  0  0  0
  2  9  1  0  0  0  0
  2 10  1  0  0  0  0
  3  5  1  0  0  0  0
  3  8  1  0  0  0  0
  3 11  1  0  0  0  0
  4  6  1  0  0  0  0
  4  7  1  0  0  0  0
  4 12  1  0  0  0  0
  5  6  1  0  0  0  0
  5 13  1  0  0  0  0
  5 14  1  0  0  0  0
  6 15  1  0  0  0  0
  6 16  1  0  0  0  0
  7  8  1  0  0  0  0
  7 17  1  0  0  0  0
  7 18  1  0  0  0  0
  9 20  1  0  0  0  0
  9 21  1  0  0  0  0
  9 23  1  0  0  0  0
 10 19  1  0  0  0  0
 10 22  1  0  0  0  0
 10 24  1  0  0  0  0
 11 25  1  0  0  0  0
 11 26  1  0  0  0  0
 11 27  1  0  0  0  0
M  END
> <PUBCHEM_COMPOUND_CID>
2537

> <PUBCHEM_COMPOUND_CANONICALIZED>
1

> <PUBCHEM_CACTVS_COMPLEXITY>
217

> <PUBCHEM_CACTVS_HBOND_ACCEPTOR>
1

> <PUBCHEM_CACTVS_HBOND_DONOR>
0

> <PUBCHEM_CACTVS_ROTATABLE_BOND>
0

> <PUBCHEM_CACTVS_SUBSKEYS>
AAADceBwIAAAAAAAAAAAAAAAAAAAAYMAAAAwAAAAAAAAAAAAAAAAGgAAAAAADwSAgAACAAAAAAAIAIAQAAAAAAAAAAAAAAEAAAAAABIAAAAAAAAAAAAAAAEIiMCPgAAAAAAAAACAAAAAAAAAAQAACAAAAA==

> <PUBCHEM_IUPAC_OPENEYE_NAME>
1,7,7-trimethylnorbornan-2-one

> <PUBCHEM_IUPAC_CAS_NAME>
1,7,7-trimethyl-2-bicyclo[2.2.1]heptanone

> <PUBCHEM_IUPAC_NAME>
1,7,7-trimethylbicyclo[2.2.1]heptan-2-one

> <PUBCHEM_IUPAC_SYSTEMATIC_NAME>
1,7,7-trimethylbicyclo[2.2.1]heptan-2-one

> <PUBCHEM_IUPAC_TRADITIONAL_NAME>
camphor

> <PUBCHEM_IUPAC_INCHI>
InChI=1S/C10H16O/c1-9(2)7-4-5-10(9,3)8(11)6-7/h7H,4-6H2,1-3H3

> <PUBCHEM_IUPAC_INCHIKEY>
DSSYKIVIOFKYAU-UHFFFAOYSA-N

> <PUBCHEM_XLOGP3_AA>
2.2

> <PUBCHEM_EXACT_MASS>
152.12

> <PUBCHEM_MOLECULAR_FORMULA>
C10H16O

> <PUBCHEM_MOLECULAR_WEIGHT>
152.237

> <PUBCHEM_OPENEYE_CAN_SMILES>
CC1(C2CCC1(C(=O)C2)C)C

> <PUBCHEM_OPENEYE_ISO_SMILES>
CC1(C2CCC1(C(=O)C2)C)C

> <PUBCHEM_CACTVS_TPSA>
17.1

> <PUBCHEM_MONOISOTOPIC_WEIGHT>
152.12

> <PUBCHEM_TOTAL_CHARGE>
0

> <PUBCHEM_HEAVY_ATOM_COUNT>
11

> <PUBCHEM_ATOM_DEF_STEREO_COUNT>
0

> <PUBCHEM_ATOM_UDEF_STEREO_COUNT>
2

> <PUBCHEM_BOND_DEF_STEREO_COUNT>
0

> <PUBCHEM_BOND_UDEF_STEREO_COUNT>
0

> <PUBCHEM_ISOTOPIC_ATOM_COUNT>
0

> <PUBCHEM_COMPONENT_COUNT>
1

> <PUBCHEM_CACTVS_TAUTO_COUNT>
-1

> <PUBCHEM_COORDINATE_TYPE>
1
5
255

> <PUBCHEM_BONDANNOTATIONS>
3  11  3
4  12  3

$$$$
2758
  -OEChem-02201912152D

 29 30  0     0  0  0  0  0  0999 V2000
    2.7369    0.6573    0.0000 O   0  0  0  0  0  0  0  0  0  0  0  0
    3.9735   -0.1914    0.0000 C   0  0  0  0  0  0  0  0  0  0  0  0
    3.7147   -1.1573    0.0000 C   0  0  0  0  0  0  0  0  0  0  0  0
    3.6030    1.1573    0.0000 C   0  0  0  0  0  0  0  0  0  0  0  0
    2.0000   -0.8096    0.0000 C   0  0  0  0  0  0  0  0  0  0  0  0
    5.3725   -0.7002    0.0000 C   0  0  0  0  0  0  0  0  0  0  0  0
    2.3420   -1.7493    0.0000 C   0  0  0  0  0  0  0  0  0  0  0  0
    5.1137   -1.6661    0.0000 C   0  0  0  0  0  0  0  0  0  0  0  0
    3.4559   -2.1232    0.0000 C   0  0  0  0  0  0  0  0  0  0  0  0
    3.3441    2.1232    0.0000 C   0  0  0  0  0  0  0  0  0  0  0  0
    4.3101    1.8644    0.0000 C   0  0  0  0  0  0  0  0  0  0  0  0
    3.9595   -0.8112    0.0000 H   0  0  0  0  0  0  0  0  0  0  0  0
    1.8057   -0.2208    0.0000 H   0  0  0  0  0  0  0  0  0  0  0  0
    1.4142   -1.0128    0.0000 H   0  0  0  0  0  0  0  0  0  0  0  0
    5.9664   -0.8780    0.0000 H   0  0  0  0  0  0  0  0  0  0  0  0
    5.5674   -0.1116    0.0000 H   0  0  0  0  0  0  0  0  0  0  0  0
    4.9187   -2.2547    0.0000 H   0  0  0  0  0  0  0  0  0  0  0  0
    1.7636   -1.9726    0.0000 H   0  0  0  0  0  0  0  0  0  0  0  0
    2.5765   -2.3233    0.0000 H   0  0  0  0  0  0  0  0  0  0  0  0
    5.7076   -1.8439    0.0000 H   0  0  0  0  0  0  0  0  0  0  0  0
    2.8570   -1.9627    0.0000 H   0  0  0  0  0  0  0  0  0  0  0  0
    3.2954   -2.7221    0.0000 H   0  0  0  0  0  0  0  0  0  0  0  0
    4.0548   -2.2837    0.0000 H   0  0  0  0  0  0  0  0  0  0  0  0
    3.9430    2.2837    0.0000 H   0  0  0  0  0  0  0  0  0  0  0  0
    3.1837    2.7221    0.0000 H   0  0  0  0  0  0  0  0  0  0  0  0
    2.7453    1.9627    0.0000 H   0  0  0  0  0  0  0  0  0  0  0  0
    4.7485    1.4260    0.0000 H   0  0  0  0  0  0  0  0  0  0  0  0
    4.7485    2.3028    0.0000 H   0  0  0  0  0  0  0  0  0  0  0  0
    3.8717    2.3028    0.0000 H   0  0  0  0  0  0  0  0  0  0  0  0
  1  3  1  0  0  0  0
  1  4  1  0  0  0  0
  2  4  1  0  0  0  0
  2  5  1  0  0  0  0
  2  6  1  0  0  0  0
  2 12  1  0  0  0  0
  3  7  1  0  0  0  0
  3  8  1  0  0  0  0
  3  9  1  0  0  0  0
  4 10  1  0  0  0  0
  4 11  1  0  0  0  0
  5  7  1  0  0  0  0
  5 13  1  0  0  0  0
  5 14  1  0  0  0  0
  6  8  1  0  0  0  0
  6 15  1  0  0  0  0
  6 16  1  0  0  0  0
  7 18  1  0  0  0  0
  7 19  1  0  0  0  0
  8 17  1  0  0  0  0
  8 20  1  0  0  0  0
  9 21  1  0  0  0  0
  9 22  1  0  0  0  0
  9 23  1  0  0  0  0
 10 24  1  0  0  0  0
 10 25  1  0  0  0  0
 10 26  1  0  0  0  0
 11 27  1  0  0  0  0
 11 28  1  0  0  0  0
 11 29  1  0  0  0  0
M  END
> <PUBCHEM_COMPOUND_CID>
2758

> <PUBCHEM_COMPOUND_CANONICALIZED>
1

> <PUBCHEM_CACTVS_COMPLEXITY>
164

> <PUBCHEM_CACTVS_HBOND_ACCEPTOR>
1

> <PUBCHEM_CACTVS_HBOND_DONOR>
0

> <PUBCHEM_CACTVS_ROTATABLE_BOND>
0

> <PUBCHEM_CACTVS_SUBSKEYS>
AAADceBwIAAAAAAAAAAAAAAAAAAAAAAAAAA0SIAAAAAAAAAAAAAAGgAAAAAADUSAgAACAAAABAAAAAAAAAAAAAAAAAAAAAAAAAAAAAIAAAACAAAEAAAAAAGAwPAOgAAAAAAAAADAAAAAAAAAAAAAAAAAAA==

> <PUBCHEM_IUPAC_OPENEYE_NAME>
1,3,3-trimethyl-2-oxabicyclo[2.2.2]octane

> <PUBCHEM_IUPAC_CAS_NAME>
1,3,3-trimethyl-2-oxabicyclo[2.2.2]octane

> <PUBCHEM_IUPAC_NAME>
1,3,3-trimethyl-2-oxabicyclo[2.2.2]octane

> <PUBCHEM_IUPAC_SYSTEMATIC_NAME>
1,3,3-trimethyl-2-oxabicyclo[2.2.2]octane

> <PUBCHEM_IUPAC_TRADITIONAL_NAME>
1,3,3-trimethyl-2-oxabicyclo[2.2.2]octane

> <PUBCHEM_IUPAC_INCHI>
InChI=1S/C10H18O/c1-9(2)8-4-6-10(3,11-9)7-5-8/h8H,4-7H2,1-3H3

> <PUBCHEM_IUPAC_INCHIKEY>
WEEGYLXZBRQIMU-UHFFFAOYSA-N

> <PUBCHEM_XLOGP3>
2.5

> <PUBCHEM_EXACT_MASS>
154.136

> <PUBCHEM_MOLECULAR_FORMULA>
C10H18O

> <PUBCHEM_MOLECULAR_WEIGHT>
154.253

> <PUBCHEM_OPENEYE_CAN_SMILES>
CC1(C2CCC(O1)(CC2)C)C

> <PUBCHEM_OPENEYE_ISO_SMILES>
CC1(C2CCC(O1)(CC2)C)C

> <PUBCHEM_CACTVS_TPSA>
9.2

> <PUBCHEM_MONOISOTOPIC_WEIGHT>
154.136

> <PUBCHEM_TOTAL_CHARGE>
0

> <PUBCHEM_HEAVY_ATOM_COUNT>
11

> <PUBCHEM_ATOM_DEF_STEREO_COUNT>
0

> <PUBCHEM_ATOM_UDEF_STEREO_COUNT>
0

> <PUBCHEM_BOND_DEF_STEREO_COUNT>
0

> <PUBCHEM_BOND_UDEF_STEREO_COUNT>
0

> <PUBCHEM_ISOTOPIC_ATOM_COUNT>
0

> <PUBCHEM_COMPONENT_COUNT>
1

> <PUBCHEM_CACTVS_TAUTO_COUNT>
-1

> <PUBCHEM_COORDINATE_TYPE>
1
5
255

$$$$
8842
  -OEChem-02201912152D

 31 30  0     1  0  0  0  0  0999 V2000
    2.5369    0.7500    0.0000 O   0  0  0  0  0  0  0  0  0  0  0  0
    5.1350    0.2500    0.0000 C   0  0  3  0  0  0  0  0  0  0  0  0
    6.0010    0.7500    0.0000 C   0  0  0  0  0  0  0  0  0  0  0  0
    4.2690    0.7500    0.0000 C   0  0  0  0  0  0  0  0  0  0  0  0
    6.8671    0.2500    0.0000 C   0  0  0  0  0  0  0  0  0  0  0  0
    5.1350   -0.7500    0.0000 C   0  0  0  0  0  0  0  0  0  0  0  0
    3.4030    0.2500    0.0000 C   0  0  0  0  0  0  0  0  0  0  0  0
    7.7331    0.7500    0.0000 C   0  0  0  0  0  0  0  0  0  0  0  0
    8.5991    0.2500    0.0000 C   0  0  0  0  0  0  0  0  0  0  0  0
    9.4651    0.7500    0.0000 C   0  0  0  0  0  0  0  0  0  0  0  0
    8.5991   -0.7500    0.0000 C   0  0  0  0  0  0  0  0  0  0  0  0
    5.8711   -0.1750    0.0000 H   0  0  0  0  0  0  0  0  0  0  0  0
    6.3996    1.2250    0.0000 H   0  0  0  0  0  0  0  0  0  0  0  0
    5.6025    1.2250    0.0000 H   0  0  0  0  0  0  0  0  0  0  0  0
    4.6675    1.2250    0.0000 H   0  0  0  0  0  0  0  0  0  0  0  0
    3.8705    1.2250    0.0000 H   0  0  0  0  0  0  0  0  0  0  0  0
    6.4685   -0.2249    0.0000 H   0  0  0  0  0  0  0  0  0  0  0  0
    7.2656   -0.2249    0.0000 H   0  0  0  0  0  0  0  0  0  0  0  0
    4.5150   -0.7500    0.0000 H   0  0  0  0  0  0  0  0  0  0  0  0
    5.1350   -1.3700    0.0000 H   0  0  0  0  0  0  0  0  0  0  0  0
    5.7550   -0.7500    0.0000 H   0  0  0  0  0  0  0  0  0  0  0  0
    3.0044   -0.2249    0.0000 H   0  0  0  0  0  0  0  0  0  0  0  0
    3.8015   -0.2249    0.0000 H   0  0  0  0  0  0  0  0  0  0  0  0
    7.7331    1.3700    0.0000 H   0  0  0  0  0  0  0  0  0  0  0  0
    2.0000    0.4400    0.0000 H   0  0  0  0  0  0  0  0  0  0  0  0
    9.7751    0.2131    0.0000 H   0  0  0  0  0  0  0  0  0  0  0  0
   10.0021    1.0600    0.0000 H   0  0  0  0  0  0  0  0  0  0  0  0
    9.1551    1.2869    0.0000 H   0  0  0  0  0  0  0  0  0  0  0  0
    7.9791   -0.7500    0.0000 H   0  0  0  0  0  0  0  0  0  0  0  0
    8.5991   -1.3700    0.0000 H   0  0  0  0  0  0  0  0  0  0  0  0
    9.2191   -0.7500    0.0000 H   0  0  0  0  0  0  0  0  0  0  0  0
  1  7  1  0  0  0  0
  1 25  1  0  0  0  0
  2  3  1  0  0  0  0
  2  4  1  0  0  0  0
  2  6  1  0  0  0  0
  2 12  1  0  0  0  0
  3  5  1  0  0  0  0
  3 13  1  0  0  0  0
  3 14  1  0  0  0  0
  4  7  1  0  0  0  0
  4 15  1  0  0  0  0
  4 16  1  0  0  0  0
  5  8  1  0  0  0  0
  5 17  1  0  0  0  0
  5 18  1  0  0  0  0
  6 19  1  0  0  0  0
  6 20  1  0  0  0  0
  6 21  1  0  0  0  0
  7 22  1  0  0  0  0
  7 23  1  0  0  0  0
  8  9  2  0  0  0  0
  8 24  1  0  0  0  0
  9 10  1  0  0  0  0
  9 11  1  0  0  0  0
 10 26  1  0  0  0  0
 10 27  1  0  0  0  0
 10 28  1  0  0  0  0
 11 29  1  0  0  0  0
 11 30  1  0  0  0  0
 11 31  1  0  0  0  0
M  END
> <PUBCHEM_COMPOUND_CID>
8842

> <PUBCHEM_COMPOUND_CANONICALIZED>
1

> <PUBCHEM_CACTVS_COMPLEXITY>
112

> <PUBCHEM_CACTVS_HBOND_ACCEPTOR>
1

> <PUBCHEM_CACTVS_HBOND_DONOR>
1

> <PUBCHEM_CACTVS_ROTATABLE_BOND>
5

> <PUBCHEM_CACTVS_SUBSKEYS>
AAADceBwIAAAAAAAAAAAAAAAAAAAAAAAAAAAAAAAAAAAAAAAAAAAGgAACAAADQCggAICAAAAAgCAAiBCAAAAAAAgAAAACAAAAAgAEAIAAQAAQAAEgAAIAAOAQAAOAAAAAAAAAAAAAAAAAAAAAAAAAAAAAA==

> <PUBCHEM_IUPAC_OPENEYE_NAME>
3,7-dimethyloct-6-en-1-ol

> <PUBCHEM_IUPAC_CAS_NAME>
3,7-dimethyl-6-octen-1-ol

> <PUBCHEM_IUPAC_NAME>
3,7-dimethyloct-6-en-1-ol

> <PUBCHEM_IUPAC_SYSTEMATIC_NAME>
3,7-dimethyloct-6-en-1-ol

> <PUBCHEM_IUPAC_TRADITIONAL_NAME>
3,7-dimethyloct-6-en-1-ol

> <PUBCHEM_IUPAC_INCHI>
InChI=1S/C10H20O/c1-9(2)5-4-6-10(3)7-8-11/h5,10-11H,4,6-8H2,1-3H3

> <PUBCHEM_IUPAC_INCHIKEY>
QMVPMAAFGQKVCJ-UHFFFAOYSA-N

> <PUBCHEM_XLOGP3_AA>
3.2

> <PUBCHEM_EXACT_MASS>
156.151

> <PUBCHEM_MOLECULAR_FORMULA>
C10H20O

> <PUBCHEM_MOLECULAR_WEIGHT>
156.269

> <PUBCHEM_OPENEYE_CAN_SMILES>
CC(CCC=C(C)C)CCO

> <PUBCHEM_OPENEYE_ISO_SMILES>
CC(CCC=C(C)C)CCO

> <PUBCHEM_CACTVS_TPSA>
20.2

> <PUBCHEM_MONOISOTOPIC_WEIGHT>
156.151

> <PUBCHEM_TOTAL_CHARGE>
0

> <PUBCHEM_HEAVY_ATOM_COUNT>
11

> <PUBCHEM_ATOM_DEF_STEREO_COUNT>
0

> <PUBCHEM_ATOM_UDEF_STEREO_COUNT>
1

> <PUBCHEM_BOND_DEF_STEREO_COUNT>
0

> <PUBCHEM_BOND_UDEF_STEREO_COUNT>
0

> <PUBCHEM_ISOTOPIC_ATOM_COUNT>
0

> <PUBCHEM_COMPONENT_COUNT>
1

> <PUBCHEM_CACTVS_TAUTO_COUNT>
-1

> <PUBCHEM_COORDINATE_TYPE>
1
5
255

> <PUBCHEM_BONDANNOTATIONS>
2  12  3

$$$$
6432254
  -OEChem-02201912152D

 30 30  0     1  0  0  0  0  0999 V2000
    3.9680   -0.6013    0.0000 O   0  0  0  0  0  0  0  0  0  0  0  0
    6.6791   -0.6316    0.0000 O   0  0  0  0  0  0  0  0  0  0  0  0
    4.7770   -0.0135    0.0000 C   0  0  1  0  0  0  0  0  0  0  0  0
    3.1590   -0.0135    0.0000 C   0  0  2  0  0  0  0  0  0  0  0  0
    4.4680    0.9375    0.0000 C   0  0  0  0  0  0  0  0  0  0  0  0
    3.4680    0.9375    0.0000 C   0  0  0  0  0  0  0  0  0  0  0  0
    5.7281   -0.3226    0.0000 C   0  0  0  0  0  0  0  0  0  0  0  0
    2.5712   -0.8226    0.0000 C   0  0  0  0  0  0  0  0  0  0  0  0
    6.0371    0.6285    0.0000 C   0  0  0  0  0  0  0  0  0  0  0  0
    5.4190   -1.2736    0.0000 C   0  0  0  0  0  0  0  0  0  0  0  0
    2.2079    0.2955    0.0000 C   0  0  0  0  0  0  0  0  0  0  0  0
    2.0000    1.2736    0.0000 C   0  0  0  0  0  0  0  0  0  0  0  0
    4.9100   -0.8531    0.0000 H   0  0  0  0  0  0  0  0  0  0  0  0
    5.0744    1.0664    0.0000 H   0  0  0  0  0  0  0  0  0  0  0  0
    4.4032    1.5541    0.0000 H   0  0  0  0  0  0  0  0  0  0  0  0
    3.5328    1.5541    0.0000 H   0  0  0  0  0  0  0  0  0  0  0  0
    2.8615    1.0664    0.0000 H   0  0  0  0  0  0  0  0  0  0  0  0
    2.0696   -0.4581    0.0000 H   0  0  0  0  0  0  0  0  0  0  0  0
    2.2068   -1.3242    0.0000 H   0  0  0  0  0  0  0  0  0  0  0  0
    3.0728   -1.1870    0.0000 H   0  0  0  0  0  0  0  0  0  0  0  0
    4.8294   -1.0820    0.0000 H   0  0  0  0  0  0  0  0  0  0  0  0
    5.2274   -1.8633    0.0000 H   0  0  0  0  0  0  0  0  0  0  0  0
    6.0087   -1.4652    0.0000 H   0  0  0  0  0  0  0  0  0  0  0  0
    6.6267    0.4369    0.0000 H   0  0  0  0  0  0  0  0  0  0  0  0
    6.2287    1.2182    0.0000 H   0  0  0  0  0  0  0  0  0  0  0  0
    5.4474    0.8201    0.0000 H   0  0  0  0  0  0  0  0  0  0  0  0
    1.7472   -0.1194    0.0000 H   0  0  0  0  0  0  0  0  0  0  0  0
    7.1399   -0.2167    0.0000 H   0  0  0  0  0  0  0  0  0  0  0  0
    2.4608    1.6885    0.0000 H   0  0  0  0  0  0  0  0  0  0  0  0
    1.4103    1.4652    0.0000 H   0  0  0  0  0  0  0  0  0  0  0  0
  1  3  1  0  0  0  0
  1  4  1  0  0  0  0
  2  7  1  0  0  0  0
  2 28  1  0  0  0  0
  3  5  1  0  0  0  0
  3  7  1  0  0  0  0
  3 13  1  6  0  0  0
  4  6  1  0  0  0  0
  4  8  1  1  0  0  0
  4 11  1  0  0  0  0
  5  6  1  0  0  0  0
  5 14  1  0  0  0  0
  5 15  1  0  0  0  0
  6 16  1  0  0  0  0
  6 17  1  0  0  0  0
  7  9  1  0  0  0  0
  7 10  1  0  0  0  0
  8 18  1  0  0  0  0
  8 19  1  0  0  0  0
  8 20  1  0  0  0  0
  9 24  1  0  0  0  0
  9 25  1  0  0  0  0
  9 26  1  0  0  0  0
 10 21  1  0  0  0  0
 10 22  1  0  0  0  0
 10 23  1  0  0  0  0
 11 12  2  0  0  0  0
 11 27  1  0  0  0  0
 12 29  1  0  0  0  0
 12 30  1  0  0  0  0
M  END
> <PUBCHEM_COMPOUND_CID>
6432254

> <PUBCHEM_COMPOUND_CANONICALIZED>
1

> <PUBCHEM_CACTVS_COMPLEXITY>
186

> <PUBCHEM_CACTVS_HBOND_ACCEPTOR>
2

> <PUBCHEM_CACTVS_HBOND_DONOR>
1

> <PUBCHEM_CACTVS_ROTATABLE_BOND>
2

> <PUBCHEM_CACTVS_SUBSKEYS>
AAADceBwMAAAAAAAAAAAAAAAAAAAASAAAAAAAAAAAAAAAAAAAAAAGgAACAAADFSggAICAAAABgCAACBCAAAAAAAgAAAIAAAAAAgBBAIAIAACQAAEgAADIAGA4FQMAAAAAAAAAAAAAAAAAAAAAAAAAAAAAA==

> <PUBCHEM_IUPAC_OPENEYE_NAME>
2-[(2~{S},5~{S})-5-methyl-5-vinyl-tetrahydrofuran-2-yl]propan-2-ol

> <PUBCHEM_IUPAC_CAS_NAME>
2-[(2~{S},5~{S})-5-ethenyl-5-methyl-2-oxolanyl]-2-propanol

> <PUBCHEM_IUPAC_NAME>
2-[(2~{S},5~{S})-5-ethenyl-5-methyloxolan-2-yl]propan-2-ol

> <PUBCHEM_IUPAC_SYSTEMATIC_NAME>
2-[(2~{S},5~{S})-5-ethenyl-5-methyl-oxolan-2-yl]propan-2-ol

> <PUBCHEM_IUPAC_TRADITIONAL_NAME>
2-[(2~{S},5~{S})-5-methyl-5-vinyl-tetrahydrofuran-2-yl]propan-2-ol

> <PUBCHEM_IUPAC_INCHI>
InChI=1S/C10H18O2/c1-5-10(4)7-6-8(12-10)9(2,3)11/h5,8,11H,1,6-7H2,2-4H3/t8-,10+/m0/s1

> <PUBCHEM_IUPAC_INCHIKEY>
BRHDDEIRQPDPMG-WCBMZHEXSA-N

> <PUBCHEM_XLOGP3_AA>
1.4

> <PUBCHEM_EXACT_MASS>
170.131

> <PUBCHEM_MOLECULAR_FORMULA>
C10H18O2

> <PUBCHEM_MOLECULAR_WEIGHT>
170.252

> <PUBCHEM_OPENEYE_CAN_SMILES>
CC1(CCC(O1)C(C)(C)O)C=C

> <PUBCHEM_OPENEYE_ISO_SMILES>
C[C@]1(CC[C@H](O1)C(C)(C)O)C=C

> <PUBCHEM_CACTVS_TPSA>
29.5

> <PUBCHEM_MONOISOTOPIC_WEIGHT>
170.131

> <PUBCHEM_TOTAL_CHARGE>
0

> <PUBCHEM_HEAVY_ATOM_COUNT>
12

> <PUBCHEM_ATOM_DEF_STEREO_COUNT>
2

> <PUBCHEM_ATOM_UDEF_STEREO_COUNT>
0

> <PUBCHEM_BOND_DEF_STEREO_COUNT>
0

> <PUBCHEM_BOND_UDEF_STEREO_COUNT>
0

> <PUBCHEM_ISOTOPIC_ATOM_COUNT>
0

> <PUBCHEM_COMPONENT_COUNT>
1

> <PUBCHEM_CACTVS_TAUTO_COUNT>
-1

> <PUBCHEM_COORDINATE_TYPE>
1
5
255

> <PUBCHEM_BONDANNOTATIONS>
3  13  6
4  8  5

$$$$
6427788
  -OEChem-02201912152D

 30 30  0     1  0  0  0  0  0999 V2000
    3.8660   -1.1270    0.0000 O   0  0  0  0  0  0  0  0  0  0  0  0
    2.1340    0.8730    0.0000 O   0  0  0  0  0  0  0  0  0  0  0  0
    3.0000   -0.6270    0.0000 C   0  0  0  0  0  0  0  0  0  0  0  0
    3.0000    0.3730    0.0000 C   0  0  1  0  0  0  0  0  0  0  0  0
    4.7320   -0.6270    0.0000 C   0  0  2  0  0  0  0  0  0  0  0  0
    3.8660    0.8730    0.0000 C   0  0  0  0  0  0  0  0  0  0  0  0
    4.7320    0.3730    0.0000 C   0  0  0  0  0  0  0  0  0  0  0  0
    2.0000   -0.6270    0.0000 C   0  0  0  0  0  0  0  0  0  0  0  0
    2.5000   -1.4930    0.0000 C   0  0  0  0  0  0  0  0  0  0  0  0
    5.2320   -1.4930    0.0000 C   0  0  0  0  0  0  0  0  0  0  0  0
    5.7320   -0.6270    0.0000 C   0  0  0  0  0  0  0  0  0  0  0  0
    6.2320    0.2390    0.0000 C   0  0  0  0  0  0  0  0  0  0  0  0
    3.0000    0.9930    0.0000 H   0  0  0  0  0  0  0  0  0  0  0  0
    4.2646    1.3480    0.0000 H   0  0  0  0  0  0  0  0  0  0  0  0
    3.4675    1.3480    0.0000 H   0  0  0  0  0  0  0  0  0  0  0  0
    5.3426    0.2654    0.0000 H   0  0  0  0  0  0  0  0  0  0  0  0
    4.9441    0.9556    0.0000 H   0  0  0  0  0  0  0  0  0  0  0  0
    2.0000   -0.0070    0.0000 H   0  0  0  0  0  0  0  0  0  0  0  0
    1.3800   -0.6270    0.0000 H   0  0  0  0  0  0  0  0  0  0  0  0
    2.0000   -1.2470    0.0000 H   0  0  0  0  0  0  0  0  0  0  0  0
    1.9631   -1.1830    0.0000 H   0  0  0  0  0  0  0  0  0  0  0  0
    2.1900   -2.0300    0.0000 H   0  0  0  0  0  0  0  0  0  0  0  0
    3.0369   -1.8030    0.0000 H   0  0  0  0  0  0  0  0  0  0  0  0
    4.6951   -1.8030    0.0000 H   0  0  0  0  0  0  0  0  0  0  0  0
    5.5420   -2.0300    0.0000 H   0  0  0  0  0  0  0  0  0  0  0  0
    5.7690   -1.1830    0.0000 H   0  0  0  0  0  0  0  0  0  0  0  0
    6.0420   -1.1639    0.0000 H   0  0  0  0  0  0  0  0  0  0  0  0
    2.1340    1.4930    0.0000 H   0  0  0  0  0  0  0  0  0  0  0  0
    6.8520    0.2390    0.0000 H   0  0  0  0  0  0  0  0  0  0  0  0
    5.9220    0.7760    0.0000 H   0  0  0  0  0  0  0  0  0  0  0  0
  1  3  1  0  0  0  0
  1  5  1  0  0  0  0
  4  2  1  6  0  0  0
  2 28  1  0  0  0  0
  3  4  1  0  0  0  0
  3  8  1  0  0  0  0
  3  9  1  0  0  0  0
  4  6  1  0  0  0  0
  4 13  1  0  0  0  0
  5  7  1  0  0  0  0
  5 10  1  6  0  0  0
  5 11  1  0  0  0  0
  6  7  1  0  0  0  0
  6 14  1  0  0  0  0
  6 15  1  0  0  0  0
  7 16  1  0  0  0  0
  7 17  1  0  0  0  0
  8 18  1  0  0  0  0
  8 19  1  0  0  0  0
  8 20  1  0  0  0  0
  9 21  1  0  0  0  0
  9 22  1  0  0  0  0
  9 23  1  0  0  0  0
 10 24  1  0  0  0  0
 10 25  1  0  0  0  0
 10 26  1  0  0  0  0
 11 12  2  0  0  0  0
 11 27  1  0  0  0  0
 12 29  1  0  0  0  0
 12 30  1  0  0  0  0
M  END
> <PUBCHEM_COMPOUND_CID>
6427788

> <PUBCHEM_COMPOUND_CANONICALIZED>
1

> <PUBCHEM_CACTVS_COMPLEXITY>
186

> <PUBCHEM_CACTVS_HBOND_ACCEPTOR>
2

> <PUBCHEM_CACTVS_HBOND_DONOR>
1

> <PUBCHEM_CACTVS_ROTATABLE_BOND>
1

> <PUBCHEM_CACTVS_SUBSKEYS>
AAADceBwMAAAAAAAAAAAAAAAAAAAAAAAAAAkAAAAAAAAAAAAAAAAGgAACAAADFSggAICAAAABgCAACBCAAAAAAAgAAAIAAAAAAgBFAIAIAACQAAEgAADIAHAwFAMAAAAAAAAAAAAAAAAAAAAAAAAAAAAAA==

> <PUBCHEM_IUPAC_OPENEYE_NAME>
(3~{R},6~{S})-2,2,6-trimethyl-6-vinyl-tetrahydropyran-3-ol

> <PUBCHEM_IUPAC_CAS_NAME>
(3~{R},6~{S})-6-ethenyl-2,2,6-trimethyl-3-oxanol

> <PUBCHEM_IUPAC_NAME>
(3~{R},6~{S})-6-ethenyl-2,2,6-trimethyloxan-3-ol

> <PUBCHEM_IUPAC_SYSTEMATIC_NAME>
(3~{R},6~{S})-6-ethenyl-2,2,6-trimethyl-oxan-3-ol

> <PUBCHEM_IUPAC_TRADITIONAL_NAME>
(3~{R},6~{S})-2,2,6-trimethyl-6-vinyl-tetrahydropyran-3-ol

> <PUBCHEM_IUPAC_INCHI>
InChI=1S/C10H18O2/c1-5-10(4)7-6-8(11)9(2,3)12-10/h5,8,11H,1,6-7H2,2-4H3/t8-,10-/m1/s1

> <PUBCHEM_IUPAC_INCHIKEY>
BCTBAGTXFYWYMW-PSASIEDQSA-N

> <PUBCHEM_XLOGP3_AA>
1.4

> <PUBCHEM_EXACT_MASS>
170.131

> <PUBCHEM_MOLECULAR_FORMULA>
C10H18O2

> <PUBCHEM_MOLECULAR_WEIGHT>
170.252

> <PUBCHEM_OPENEYE_CAN_SMILES>
CC1(C(CCC(O1)(C)C=C)O)C

> <PUBCHEM_OPENEYE_ISO_SMILES>
C[C@]1(CC[C@H](C(O1)(C)C)O)C=C

> <PUBCHEM_CACTVS_TPSA>
29.5

> <PUBCHEM_MONOISOTOPIC_WEIGHT>
170.131

> <PUBCHEM_TOTAL_CHARGE>
0

> <PUBCHEM_HEAVY_ATOM_COUNT>
12

> <PUBCHEM_ATOM_DEF_STEREO_COUNT>
2

> <PUBCHEM_ATOM_UDEF_STEREO_COUNT>
0

> <PUBCHEM_BOND_DEF_STEREO_COUNT>
0

> <PUBCHEM_BOND_UDEF_STEREO_COUNT>
0

> <PUBCHEM_ISOTOPIC_ATOM_COUNT>
0

> <PUBCHEM_COMPONENT_COUNT>
1

> <PUBCHEM_CACTVS_TAUTO_COUNT>
-1

> <PUBCHEM_COORDINATE_TYPE>
1
5
255

> <PUBCHEM_BONDANNOTATIONS>
4  2  6
5  10  6

$$$$
6432254_2
  -OEChem-02201912152D

 30 30  0     1  0  0  0  0  0999 V2000
    3.9680   -0.6013    0.0000 O   0  0  0  0  0  0  0  0  0  0  0  0
    6.6791   -0.6316    0.0000 O   0  0  0  0  0  0  0  0  0  0  0  0
    4.7770   -0.0135    0.0000 C   0  0  1  0  0  0  0  0  0  0  0  0
    3.1590   -0.0135    0.0000 C   0  0  2  0  0  0  0  0  0  0  0  0
    4.4680    0.9375    0.0000 C   0  0  0  0  0  0  0  0  0  0  0  0
    3.4680    0.9375    0.0000 C   0  0  0  0  0  0  0  0  0  0  0  0
    5.7281   -0.3226    0.0000 C   0  0  0  0  0  0  0  0  0  0  0  0
    2.5712   -0.8226    0.0000 C   0  0  0  0  0  0  0  0  0  0  0  0
    6.0371    0.6285    0.0000 C   0  0  0  0  0  0  0  0  0  0  0  0
    5.4190   -1.2736    0.0000 C   0  0  0  0  0  0  0  0  0  0  0  0
    2.2079    0.2955    0.0000 C   0  0  0  0  0  0  0  0  0  0  0  0
    2.0000    1.2736    0.0000 C   0  0  0  0  0  0  0  0  0  0  0  0
    4.9100   -0.8531    0.0000 H   0  0  0  0  0  0  0  0  0  0  0  0
    5.0744    1.0664    0.0000 H   0  0  0  0  0  0  0  0  0  0  0  0
    4.4032    1.5541    0.0000 H   0  0  0  0  0  0  0  0  0  0  0  0
    3.5328    1.5541    0.0000 H   0  0  0  0  0  0  0  0  0  0  0  0
    2.8615    1.0664    0.0000 H   0  0  0  0  0  0  0  0  0  0  0  0
    2.0696   -0.4581    0.0000 H   0  0  0  0  0  0  0  0  0  0  0  0
    2.2068   -1.3242    0.0000 H   0  0  0  0  0  0  0  0  0  0  0  0
    3.0728   -1.1870    0.0000 H   0  0  0  0  0  0  0  0  0  0  0  0
    4.8294   -1.0820    0.0000 H   0  0  0  0  0  0  0  0  0  0  0  0
    5.2274   -1.8633    0.0000 H   0  0  0  0  0  0  0  0  0  0  0  0
    6.0087   -1.4652    0.0000 H   0  0  0  0  0  0  0  0  0  0  0  0
    6.6267    0.4369    0.0000 H   0  0  0  0  0  0  0  0  0  0  0  0
    6.2287    1.2182    0.0000 H   0  0  0  0  0  0  0  0  0  0  0  0
    5.4474    0.8201    0.0000 H   0  0  0  0  0  0  0  0  0  0  0  0
    1.7472   -0.1194    0.0000 H   0  0  0  0  0  0  0  0  0  0  0  0
    7.1399   -0.2167    0.0000 H   0  0  0  0  0  0  0  0  0  0  0  0
    2.4608    1.6885    0.0000 H   0  0  0  0  0  0  0  0  0  0  0  0
    1.4103    1.4652    0.0000 H   0  0  0  0  0  0  0  0  0  0  0  0
  1  3  1  0  0  0  0
  1  4  1  0  0  0  0
  2  7  1  0  0  0  0
  2 28  1  0  0  0  0
  3  5  1  0  0  0  0
  3  7  1  0  0  0  0
  3 13  1  6  0  0  0
  4  6  1  0  0  0  0
  4  8  1  1  0  0  0
  4 11  1  0  0  0  0
  5  6  1  0  0  0  0
  5 14  1  0  0  0  0
  5 15  1  0  0  0  0
  6 16  1  0  0  0  0
  6 17  1  0  0  0  0
  7  9  1  0  0  0  0
  7 10  1  0  0  0  0
  8 18  1  0  0  0  0
  8 19  1  0  0  0  0
  8 20  1  0  0  0  0
  9 24  1  0  0  0  0
  9 25  1  0  0  0  0
  9 26  1  0  0  0  0
 10 21  1  0  0  0  0
 10 22  1  0  0  0  0
 10 23  1  0  0  0  0
 11 12  2  0  0  0  0
 11 27  1  0  0  0  0
 12 29  1  0  0  0  0
 12 30  1  0  0  0  0
M  END
> <PUBCHEM_COMPOUND_CID>
6432254

> <PUBCHEM_COMPOUND_CANONICALIZED>
1

> <PUBCHEM_CACTVS_COMPLEXITY>
186

> <PUBCHEM_CACTVS_HBOND_ACCEPTOR>
2

> <PUBCHEM_CACTVS_HBOND_DONOR>
1

> <PUBCHEM_CACTVS_ROTATABLE_BOND>
2

> <PUBCHEM_CACTVS_SUBSKEYS>
AAADceBwMAAAAAAAAAAAAAAAAAAAASAAAAAAAAAAAAAAAAAAAAAAGgAACAAADFSggAICAAAABgCAACBCAAAAAAAgAAAIAAAAAAgBBAIAIAACQAAEgAADIAGA4FQMAAAAAAAAAAAAAAAAAAAAAAAAAAAAAA==

> <PUBCHEM_IUPAC_OPENEYE_NAME>
2-[(2~{S},5~{S})-5-methyl-5-vinyl-tetrahydrofuran-2-yl]propan-2-ol

> <PUBCHEM_IUPAC_CAS_NAME>
2-[(2~{S},5~{S})-5-ethenyl-5-methyl-2-oxolanyl]-2-propanol

> <PUBCHEM_IUPAC_NAME>
2-[(2~{S},5~{S})-5-ethenyl-5-methyloxolan-2-yl]propan-2-ol

> <PUBCHEM_IUPAC_SYSTEMATIC_NAME>
2-[(2~{S},5~{S})-5-ethenyl-5-methyl-oxolan-2-yl]propan-2-ol

> <PUBCHEM_IUPAC_TRADITIONAL_NAME>
2-[(2~{S},5~{S})-5-methyl-5-vinyl-tetrahydrofuran-2-yl]propan-2-ol

> <PUBCHEM_IUPAC_INCHI>
InChI=1S/C10H18O2/c1-5-10(4)7-6-8(12-10)9(2,3)11/h5,8,11H,1,6-7H2,2-4H3/t8-,10+/m0/s1

> <PUBCHEM_IUPAC_INCHIKEY>
BRHDDEIRQPDPMG-WCBMZHEXSA-N

> <PUBCHEM_XLOGP3_AA>
1.4

> <PUBCHEM_EXACT_MASS>
170.131

> <PUBCHEM_MOLECULAR_FORMULA>
C10H18O2

> <PUBCHEM_MOLECULAR_WEIGHT>
170.252

> <PUBCHEM_OPENEYE_CAN_SMILES>
CC1(CCC(O1)C(C)(C)O)C=C

> <PUBCHEM_OPENEYE_ISO_SMILES>
C[C@]1(CC[C@H](O1)C(C)(C)O)C=C

> <PUBCHEM_CACTVS_TPSA>
29.5

> <PUBCHEM_MONOISOTOPIC_WEIGHT>
170.131

> <PUBCHEM_TOTAL_CHARGE>
0

> <PUBCHEM_HEAVY_ATOM_COUNT>
12

> <PUBCHEM_ATOM_DEF_STEREO_COUNT>
2

> <PUBCHEM_ATOM_UDEF_STEREO_COUNT>
0

> <PUBCHEM_BOND_DEF_STEREO_COUNT>
0

> <PUBCHEM_BOND_UDEF_STEREO_COUNT>
0

> <PUBCHEM_ISOTOPIC_ATOM_COUNT>
0

> <PUBCHEM_COMPONENT_COUNT>
1

> <PUBCHEM_CACTVS_TAUTO_COUNT>
-1

> <PUBCHEM_COORDINATE_TYPE>
1
5
255

> <PUBCHEM_BONDANNOTATIONS>
3  13  6
4  8  5

$$$$
7461
  -OEChem-02201912152D

 26 26  0     0  0  0  0  0  0999 V2000
    2.8660    1.7500    0.0000 C   0  0  0  0  0  0  0  0  0  0  0  0
    2.8660    0.7500    0.0000 C   0  0  0  0  0  0  0  0  0  0  0  0
    3.7320    0.2500    0.0000 C   0  0  0  0  0  0  0  0  0  0  0  0
    2.0000   -0.7500    0.0000 C   0  0  0  0  0  0  0  0  0  0  0  0
    2.0000    0.2500    0.0000 C   0  0  0  0  0  0  0  0  0  0  0  0
    2.8660   -1.2500    0.0000 C   0  0  0  0  0  0  0  0  0  0  0  0
    3.7320   -0.7500    0.0000 C   0  0  0  0  0  0  0  0  0  0  0  0
    3.7320    2.2500    0.0000 C   0  0  0  0  0  0  0  0  0  0  0  0
    2.0000    2.2500    0.0000 C   0  0  0  0  0  0  0  0  0  0  0  0
    2.8660   -2.2500    0.0000 C   0  0  0  0  0  0  0  0  0  0  0  0
    2.8660    2.3700    0.0000 H   0  0  0  0  0  0  0  0  0  0  0  0
    4.3426    0.1423    0.0000 H   0  0  0  0  0  0  0  0  0  0  0  0
    3.9441    0.8326    0.0000 H   0  0  0  0  0  0  0  0  0  0  0  0
    1.3894   -0.6423    0.0000 H   0  0  0  0  0  0  0  0  0  0  0  0
    1.7880   -1.3326    0.0000 H   0  0  0  0  0  0  0  0  0  0  0  0
    1.4631    0.5600    0.0000 H   0  0  0  0  0  0  0  0  0  0  0  0
    4.2690   -1.0600    0.0000 H   0  0  0  0  0  0  0  0  0  0  0  0
    2.3100    2.7869    0.0000 H   0  0  0  0  0  0  0  0  0  0  0  0
    1.4631    2.5600    0.0000 H   0  0  0  0  0  0  0  0  0  0  0  0
    1.6900    1.7131    0.0000 H   0  0  0  0  0  0  0  0  0  0  0  0
    4.0420    1.7131    0.0000 H   0  0  0  0  0  0  0  0  0  0  0  0
    4.2690    2.5600    0.0000 H   0  0  0  0  0  0  0  0  0  0  0  0
    3.4220    2.7869    0.0000 H   0  0  0  0  0  0  0  0  0  0  0  0
    2.2460   -2.2500    0.0000 H   0  0  0  0  0  0  0  0  0  0  0  0
    2.8660   -2.8700    0.0000 H   0  0  0  0  0  0  0  0  0  0  0  0
    3.4860   -2.2500    0.0000 H   0  0  0  0  0  0  0  0  0  0  0  0
  1  2  1  0  0  0  0
  1  8  1  0  0  0  0
  1  9  1  0  0  0  0
  1 11  1  0  0  0  0
  2  3  1  0  0  0  0
  2  5  2  0  0  0  0
  3  7  1  0  0  0  0
  3 12  1  0  0  0  0
  3 13  1  0  0  0  0
  4  5  1  0  0  0  0
  4  6  1  0  0  0  0
  4 14  1  0  0  0  0
  4 15  1  0  0  0  0
  5 16  1  0  0  0  0
  6  7  2  0  0  0  0
  6 10  1  0  0  0  0
  7 17  1  0  0  0  0
  8 21  1  0  0  0  0
  8 22  1  0  0  0  0
  8 23  1  0  0  0  0
  9 18  1  0  0  0  0
  9 19  1  0  0  0  0
  9 20  1  0  0  0  0
 10 24  1  0  0  0  0
 10 25  1  0  0  0  0
 10 26  1  0  0  0  0
M  END
> <PUBCHEM_COMPOUND_CID>
7461

> <PUBCHEM_COMPOUND_CANONICALIZED>
1

> <PUBCHEM_CACTVS_COMPLEXITY>
171

> <PUBCHEM_CACTVS_HBOND_ACCEPTOR>
0

> <PUBCHEM_CACTVS_HBOND_DONOR>
0

> <PUBCHEM_CACTVS_ROTATABLE_BOND>
1

> <PUBCHEM_CACTVS_SUBSKEYS>
AAADceBwAAAAAAAAAAAAAAAAAAAAAAAAAAAgAAAAAAAAAAAAAAAAGAAAAAAADQCAAAACAAAAAACAAiBCAAAAAAAgAAAACAAAAAgAAAIAAQAAAAAAgAAIAAIAAAAMAAAAAAAAAAAAAAAAAAAAAAAAAAAAAA==

> <PUBCHEM_IUPAC_OPENEYE_NAME>
1-isopropyl-4-methyl-cyclohexa-1,4-diene

> <PUBCHEM_IUPAC_CAS_NAME>
1-methyl-4-propan-2-ylcyclohexa-1,4-diene

> <PUBCHEM_IUPAC_NAME>
1-methyl-4-propan-2-ylcyclohexa-1,4-diene

> <PUBCHEM_IUPAC_SYSTEMATIC_NAME>
1-methyl-4-propan-2-yl-cyclohexa-1,4-diene

> <PUBCHEM_IUPAC_TRADITIONAL_NAME>
1-isopropyl-4-methyl-cyclohexa-1,4-diene

> <PUBCHEM_IUPAC_INCHI>
InChI=1S/C10H16/c1-8(2)10-6-4-9(3)5-7-10/h4,7-8H,5-6H2,1-3H3

> <PUBCHEM_IUPAC_INCHIKEY>
YKFLAYDHMOASIY-UHFFFAOYSA-N

> <PUBCHEM_XLOGP3_AA>
2.8

> <PUBCHEM_EXACT_MASS>
136.125

> <PUBCHEM_MOLECULAR_FORMULA>
C10H16

> <PUBCHEM_MOLECULAR_WEIGHT>
136.238

> <PUBCHEM_OPENEYE_CAN_SMILES>
CC1=CCC(=CC1)C(C)C

> <PUBCHEM_OPENEYE_ISO_SMILES>
CC1=CCC(=CC1)C(C)C

> <PUBCHEM_CACTVS_TPSA>
0

> <PUBCHEM_MONOISOTOPIC_WEIGHT>
136.125

> <PUBCHEM_TOTAL_CHARGE>
0

> <PUBCHEM_HEAVY_ATOM_COUNT>
10

> <PUBCHEM_ATOM_DEF_STEREO_COUNT>
0

> <PUBCHEM_ATOM_UDEF_STEREO_COUNT>
0

> <PUBCHEM_BOND_DEF_STEREO_COUNT>
0

> <PUBCHEM_BOND_UDEF_STEREO_COUNT>
0

> <PUBCHEM_ISOTOPIC_ATOM_COUNT>
0

> <PUBCHEM_COMPONENT_COUNT>
1

> <PUBCHEM_CACTVS_TAUTO_COUNT>
-1

> <PUBCHEM_COORDINATE_TYPE>
1
5
255

$$$$
5366264
  -OEChem-02201912152D

 27 26  0     1  0  0  0  0  0999 V2000
    2.5369   -0.8660    0.0000 O   0  0  0  0  0  0  0  0  0  0  0  0
    3.4030   -0.3660    0.0000 C   0  0  3  0  0  0  0  0  0  0  0  0
    4.2690    0.1340    0.0000 C   0  0  0  0  0  0  0  0  0  0  0  0
    3.9030   -1.2320    0.0000 C   0  0  0  0  0  0  0  0  0  0  0  0
    2.9030    0.5000    0.0000 C   0  0  0  0  0  0  0  0  0  0  0  0
    5.1350   -0.3660    0.0000 C   0  0  0  0  0  0  0  0  0  0  0  0
    6.0010    0.1340    0.0000 C   0  0  0  0  0  0  0  0  0  0  0  0
    6.8671   -0.3660    0.0000 C   0  0  0  0  0  0  0  0  0  0  0  0
    3.4030    1.3660    0.0000 C   0  0  0  0  0  0  0  0  0  0  0  0
    7.7331    0.1340    0.0000 C   0  0  0  0  0  0  0  0  0  0  0  0
    6.8671   -1.3660    0.0000 C   0  0  0  0  0  0  0  0  0  0  0  0
    4.6675    0.6089    0.0000 H   0  0  0  0  0  0  0  0  0  0  0  0
    3.8705    0.6089    0.0000 H   0  0  0  0  0  0  0  0  0  0  0  0
    3.3660   -1.5420    0.0000 H   0  0  0  0  0  0  0  0  0  0  0  0
    4.2130   -1.7690    0.0000 H   0  0  0  0  0  0  0  0  0  0  0  0
    4.4399   -0.9221    0.0000 H   0  0  0  0  0  0  0  0  0  0  0  0
    2.2830    0.5000    0.0000 H   0  0  0  0  0  0  0  0  0  0  0  0
    5.1350   -0.9860    0.0000 H   0  0  0  0  0  0  0  0  0  0  0  0
    2.0000   -0.5560    0.0000 H   0  0  0  0  0  0  0  0  0  0  0  0
    6.0010    0.7540    0.0000 H   0  0  0  0  0  0  0  0  0  0  0  0
    4.0230    1.3660    0.0000 H   0  0  0  0  0  0  0  0  0  0  0  0
    3.0930    1.9030    0.0000 H   0  0  0  0  0  0  0  0  0  0  0  0
    8.0431   -0.4030    0.0000 H   0  0  0  0  0  0  0  0  0  0  0  0
    8.2700    0.4440    0.0000 H   0  0  0  0  0  0  0  0  0  0  0  0
    7.4231    0.6709    0.0000 H   0  0  0  0  0  0  0  0  0  0  0  0
    6.3301   -1.6760    0.0000 H   0  0  0  0  0  0  0  0  0  0  0  0
    7.4040   -1.6760    0.0000 H   0  0  0  0  0  0  0  0  0  0  0  0
  1  2  1  0  0  0  0
  1 19  1  0  0  0  0
  2  3  1  0  0  0  0
  2  4  1  0  0  0  0
  2  5  1  0  0  0  0
  3  6  1  0  0  0  0
  3 12  1  0  0  0  0
  3 13  1  0  0  0  0
  4 14  1  0  0  0  0
  4 15  1  0  0  0  0
  4 16  1  0  0  0  0
  5  9  2  0  0  0  0
  5 17  1  0  0  0  0
  6  7  2  0  0  0  0
  6 18  1  0  0  0  0
  7  8  1  0  0  0  0
  7 20  1  0  0  0  0
  8 10  1  0  0  0  0
  8 11  2  0  0  0  0
  9 21  1  0  0  0  0
  9 22  1  0  0  0  0
 10 23  1  0  0  0  0
 10 24  1  0  0  0  0
 10 25  1  0  0  0  0
 11 26  1  0  0  0  0
 11 27  1  0  0  0  0
M  END
> <PUBCHEM_COMPOUND_CID>
5366264

> <PUBCHEM_COMPOUND_CANONICALIZED>
1

> <PUBCHEM_CACTVS_COMPLEXITY>
179

> <PUBCHEM_CACTVS_HBOND_ACCEPTOR>
1

> <PUBCHEM_CACTVS_HBOND_DONOR>
1

> <PUBCHEM_CACTVS_ROTATABLE_BOND>
4

> <PUBCHEM_CACTVS_SUBSKEYS>
AAADceBwIAAAAAAAAAAAAAAAAAAAAAAAAAAAAAAAAAAAAAAAAAAAGgAACAAADESAgAACAAAAAgCAAiBCAAAAAAAgAAAICAAAAAgIBAAAAQAAQAAAwAAIkAIAAAAIAAAAAAAAAAAAAAAAAAAAAAAAAAAAAA==

> <PUBCHEM_IUPAC_OPENEYE_NAME>
(5~{E})-3,7-dimethylocta-1,5,7-trien-3-ol

> <PUBCHEM_IUPAC_CAS_NAME>
(5~{E})-3,7-dimethyl-3-octa-1,5,7-trienol

> <PUBCHEM_IUPAC_NAME>
(5~{E})-3,7-dimethylocta-1,5,7-trien-3-ol

> <PUBCHEM_IUPAC_SYSTEMATIC_NAME>
(5~{E})-3,7-dimethylocta-1,5,7-trien-3-ol

> <PUBCHEM_IUPAC_TRADITIONAL_NAME>
(5~{E})-3,7-dimethylocta-1,5,7-trien-3-ol

> <PUBCHEM_IUPAC_INCHI>
InChI=1S/C10H16O/c1-5-10(4,11)8-6-7-9(2)3/h5-7,11H,1-2,8H2,3-4H3/b7-6+

> <PUBCHEM_IUPAC_INCHIKEY>
ZJIQIJIQBTVTDY-VOTSOKGWSA-N

> <PUBCHEM_XLOGP3_AA>
2.8

> <PUBCHEM_EXACT_MASS>
152.12

> <PUBCHEM_MOLECULAR_FORMULA>
C10H16O

> <PUBCHEM_MOLECULAR_WEIGHT>
152.237

> <PUBCHEM_OPENEYE_CAN_SMILES>
CC(=C)C=CCC(C)(C=C)O

> <PUBCHEM_OPENEYE_ISO_SMILES>
CC(=C)/C=C/CC(C)(C=C)O

> <PUBCHEM_CACTVS_TPSA>
20.2

> <PUBCHEM_MONOISOTOPIC_WEIGHT>
152.12

> <PUBCHEM_TOTAL_CHARGE>
0

> <PUBCHEM_HEAVY_ATOM_COUNT>
11

> <PUBCHEM_ATOM_DEF_STEREO_COUNT>
0

> <PUBCHEM_ATOM_UDEF_STEREO_COUNT>
1

> <PUBCHEM_BOND_DEF_STEREO_COUNT>
1

> <PUBCHEM_BOND_UDEF_STEREO_COUNT>
0

> <PUBCHEM_ISOTOPIC_ATOM_COUNT>
0

> <PUBCHEM_COMPONENT_COUNT>
1

> <PUBCHEM_CACTVS_TAUTO_COUNT>
1

> <PUBCHEM_COORDINATE_TYPE>
1
5
255

> <PUBCHEM_BONDANNOTATIONS>
2  1  3

$$$$
44135602
  -OEChem-02201912152D

 40 41  0     1  0  0  0  0  0999 V2000
    2.6176   -3.1871    0.0000 O   0  0  0  0  0  0  0  0  0  0  0  0
    2.4667   -1.4617    0.0000 O   0  0  0  0  0  0  0  0  0  0  0  0
    7.2506    0.2981    0.0000 C   0  0  3  0  0  0  0  0  0  0  0  0
    6.7728    2.2466    0.0000 C   0  0  0  0  0  0  0  0  0  0  0  0
    7.5094    1.2640    0.0000 C   0  0  3  0  0  0  0  0  0  0  0  0
    5.8779   -0.2939    0.0000 C   0  0  3  0  0  0  0  0  0  0  0  0
    5.5359    0.6458    0.0000 C   0  0  0  0  0  0  0  0  0  0  0  0
    8.6495   -0.2107    0.0000 C   0  0  0  0  0  0  0  0  0  0  0  0
    8.9084    0.7552    0.0000 C   0  0  0  0  0  0  0  0  0  0  0  0
    6.9918   -0.6678    0.0000 C   0  0  0  0  0  0  0  0  0  0  0  0
    6.8773    3.2412    0.0000 C   0  0  0  0  0  0  0  0  0  0  0  0
    5.8592    2.6534    0.0000 C   0  0  0  0  0  0  0  0  0  0  0  0
    5.4553   -1.2002    0.0000 C   0  0  0  0  0  0  0  0  0  0  0  0
    4.4591   -1.2874    0.0000 C   0  0  0  0  0  0  0  0  0  0  0  0
    4.0364   -2.1937    0.0000 C   0  0  0  0  0  0  0  0  0  0  0  0
    3.0403   -2.2808    0.0000 C   0  0  0  0  0  0  0  0  0  0  0  0
    7.4954    0.6442    0.0000 H   0  0  0  0  0  0  0  0  0  0  0  0
    6.3098   -0.7387    0.0000 H   0  0  0  0  0  0  0  0  0  0  0  0
    5.3416    1.2346    0.0000 H   0  0  0  0  0  0  0  0  0  0  0  0
    4.9501    0.4426    0.0000 H   0  0  0  0  0  0  0  0  0  0  0  0
    8.4546   -0.7993    0.0000 H   0  0  0  0  0  0  0  0  0  0  0  0
    9.2435   -0.3885    0.0000 H   0  0  0  0  0  0  0  0  0  0  0  0
    9.5023    0.5774    0.0000 H   0  0  0  0  0  0  0  0  0  0  0  0
    9.1033    1.3438    0.0000 H   0  0  0  0  0  0  0  0  0  0  0  0
    6.3929   -0.5073    0.0000 H   0  0  0  0  0  0  0  0  0  0  0  0
    6.8313   -1.2667    0.0000 H   0  0  0  0  0  0  0  0  0  0  0  0
    7.5906   -0.8283    0.0000 H   0  0  0  0  0  0  0  0  0  0  0  0
    6.1114    3.2198    0.0000 H   0  0  0  0  0  0  0  0  0  0  0  0
    5.2928    2.9056    0.0000 H   0  0  0  0  0  0  0  0  0  0  0  0
    5.6071    2.0870    0.0000 H   0  0  0  0  0  0  0  0  0  0  0  0
    7.4939    3.1764    0.0000 H   0  0  0  0  0  0  0  0  0  0  0  0
    6.9421    3.8578    0.0000 H   0  0  0  0  0  0  0  0  0  0  0  0
    6.2607    3.3060    0.0000 H   0  0  0  0  0  0  0  0  0  0  0  0
    5.4012   -1.8178    0.0000 H   0  0  0  0  0  0  0  0  0  0  0  0
    6.0541   -1.3607    0.0000 H   0  0  0  0  0  0  0  0  0  0  0  0
    4.5131   -0.6697    0.0000 H   0  0  0  0  0  0  0  0  0  0  0  0
    3.8602   -1.1269    0.0000 H   0  0  0  0  0  0  0  0  0  0  0  0
    3.9824   -2.8113    0.0000 H   0  0  0  0  0  0  0  0  0  0  0  0
    4.6353   -2.3541    0.0000 H   0  0  0  0  0  0  0  0  0  0  0  0
    2.0000   -3.2412    0.0000 H   0  0  0  0  0  0  0  0  0  0  0  0
  1 16  1  0  0  0  0
  1 40  1  0  0  0  0
  2 16  2  0  0  0  0
  3  4  1  0  0  0  0
  3  6  1  0  0  0  0
  3  8  1  0  0  0  0
  3 10  1  0  0  0  0
  4  5  1  0  0  0  0
  4 11  1  0  0  0  0
  4 12  1  0  0  0  0
  5  7  1  0  0  0  0
  5  9  1  0  0  0  0
  5 17  1  0  0  0  0
  6  7  1  0  0  0  0
  6 13  1  0  0  0  0
  6 18  1  0  0  0  0
  7 19  1  0  0  0  0
  7 20  1  0  0  0  0
  8  9  1  0  0  0  0
  8 21  1  0  0  0  0
  8 22  1  0  0  0  0
  9 23  1  0  0  0  0
  9 24  1  0  0  0  0
 10 25  1  0  0  0  0
 10 26  1  0  0  0  0
 10 27  1  0  0  0  0
 11 31  1  0  0  0  0
 11 32  1  0  0  0  0
 11 33  1  0  0  0  0
 12 28  1  0  0  0  0
 12 29  1  0  0  0  0
 12 30  1  0  0  0  0
 13 14  1  0  0  0  0
 13 34  1  0  0  0  0
 13 35  1  0  0  0  0
 14 15  1  0  0  0  0
 14 36  1  0  0  0  0
 14 37  1  0  0  0  0
 15 16  1  0  0  0  0
 15 38  1  0  0  0  0
 15 39  1  0  0  0  0
M  END
> <PUBCHEM_COMPOUND_CID>
44135602

> <PUBCHEM_COMPOUND_CANONICALIZED>
1

> <PUBCHEM_CACTVS_COMPLEXITY>
295

> <PUBCHEM_CACTVS_HBOND_ACCEPTOR>
2

> <PUBCHEM_CACTVS_HBOND_DONOR>
1

> <PUBCHEM_CACTVS_ROTATABLE_BOND>
4

> <PUBCHEM_CACTVS_SUBSKEYS>
AAADceBwMAAAAAAAAAAAAAAAAAAAAYMAAAAwAAAAAAAAAAAAAAAAGgAACAAADwCAgAACCAAAAgAIAACQCAAAAAAAAAAAAAEAAAAAABIAAAAAQAAEAAAAAAGIyPCPgAAAAAAAAACAAAQAACAAAQAACAAAAA==

> <PUBCHEM_IUPAC_OPENEYE_NAME>
4-(1,7,7-trimethylnorbornan-2-yl)butanoic acid

> <PUBCHEM_IUPAC_CAS_NAME>
4-(1,7,7-trimethyl-2-bicyclo[2.2.1]heptanyl)butanoic acid

> <PUBCHEM_IUPAC_NAME>
4-(1,7,7-trimethyl-2-bicyclo[2.2.1]heptanyl)butanoic acid

> <PUBCHEM_IUPAC_SYSTEMATIC_NAME>
4-(1,7,7-trimethyl-2-bicyclo[2.2.1]heptanyl)butanoic acid

> <PUBCHEM_IUPAC_TRADITIONAL_NAME>
4-(2-bornyl)butyric acid

> <PUBCHEM_IUPAC_INCHI>
InChI=1S/C14H24O2/c1-13(2)10-7-8-14(13,3)11(9-10)5-4-6-12(15)16/h10-11H,4-9H2,1-3H3,(H,15,16)

> <PUBCHEM_IUPAC_INCHIKEY>
JFUSVTFHXUHNIN-UHFFFAOYSA-N

> <PUBCHEM_XLOGP3_AA>
4.2

> <PUBCHEM_EXACT_MASS>
224.178

> <PUBCHEM_MOLECULAR_FORMULA>
C14H24O2

> <PUBCHEM_MOLECULAR_WEIGHT>
224.344

> <PUBCHEM_OPENEYE_CAN_SMILES>
CC1(C2CCC1(C(C2)CCCC(=O)O)C)C

> <PUBCHEM_OPENEYE_ISO_SMILES>
CC1(C2CCC1(C(C2)CCCC(=O)O)C)C

> <PUBCHEM_CACTVS_TPSA>
37.3

> <PUBCHEM_MONOISOTOPIC_WEIGHT>
224.178

> <PUBCHEM_TOTAL_CHARGE>
0

> <PUBCHEM_HEAVY_ATOM_COUNT>
16

> <PUBCHEM_ATOM_DEF_STEREO_COUNT>
0

> <PUBCHEM_ATOM_UDEF_STEREO_COUNT>
3

> <PUBCHEM_BOND_DEF_STEREO_COUNT>
0

> <PUBCHEM_BOND_UDEF_STEREO_COUNT>
0

> <PUBCHEM_ISOTOPIC_ATOM_COUNT>
0

> <PUBCHEM_COMPONENT_COUNT>
1

> <PUBCHEM_CACTVS_TAUTO_COUNT>
-1

> <PUBCHEM_COORDINATE_TYPE>
1
5
255

> <PUBCHEM_BONDANNOTATIONS>
3  4  3
5  4  3
6  13  3

$$$$
89306
  -OEChem-02201912152D

 37 38  0     1  0  0  0  0  0999 V2000
    4.4150   -1.6804    0.0000 O   0  0  0  0  0  0  0  0  0  0  0  0
    2.8452   -0.9484    0.0000 O   0  0  0  0  0  0  0  0  0  0  0  0
    6.2103   -0.1821    0.0000 C   0  0  3  0  0  0  0  0  0  0  0  0
    5.7325    1.7665    0.0000 C   0  0  0  0  0  0  0  0  0  0  0  0
    6.4692    0.7839    0.0000 C   0  0  3  0  0  0  0  0  0  0  0  0
    4.8376   -0.7741    0.0000 C   0  0  3  0  0  0  0  0  0  0  0  0
    7.6093   -0.6909    0.0000 C   0  0  0  0  0  0  0  0  0  0  0  0
    4.4956    0.1656    0.0000 C   0  0  0  0  0  0  0  0  0  0  0  0
    7.8681    0.2750    0.0000 C   0  0  0  0  0  0  0  0  0  0  0  0
    5.9515   -1.1480    0.0000 C   0  0  0  0  0  0  0  0  0  0  0  0
    5.8371    2.7610    0.0000 C   0  0  0  0  0  0  0  0  0  0  0  0
    4.8190    2.1732    0.0000 C   0  0  0  0  0  0  0  0  0  0  0  0
    3.4188   -1.7675    0.0000 C   0  0  0  0  0  0  0  0  0  0  0  0
    2.9962   -2.6738    0.0000 C   0  0  0  0  0  0  0  0  0  0  0  0
    2.0000   -2.7610    0.0000 C   0  0  0  0  0  0  0  0  0  0  0  0
    6.4551    0.1640    0.0000 H   0  0  0  0  0  0  0  0  0  0  0  0
    5.2696   -1.2188    0.0000 H   0  0  0  0  0  0  0  0  0  0  0  0
    7.4143   -1.2794    0.0000 H   0  0  0  0  0  0  0  0  0  0  0  0
    8.2032   -0.8686    0.0000 H   0  0  0  0  0  0  0  0  0  0  0  0
    4.3013    0.7544    0.0000 H   0  0  0  0  0  0  0  0  0  0  0  0
    3.9098   -0.0376    0.0000 H   0  0  0  0  0  0  0  0  0  0  0  0
    8.4621    0.0973    0.0000 H   0  0  0  0  0  0  0  0  0  0  0  0
    8.0630    0.8636    0.0000 H   0  0  0  0  0  0  0  0  0  0  0  0
    5.3526   -0.9875    0.0000 H   0  0  0  0  0  0  0  0  0  0  0  0
    5.7910   -1.7469    0.0000 H   0  0  0  0  0  0  0  0  0  0  0  0
    6.5504   -1.3084    0.0000 H   0  0  0  0  0  0  0  0  0  0  0  0
    5.0712    2.7396    0.0000 H   0  0  0  0  0  0  0  0  0  0  0  0
    6.4537    2.6962    0.0000 H   0  0  0  0  0  0  0  0  0  0  0  0
    5.9019    3.3776    0.0000 H   0  0  0  0  0  0  0  0  0  0  0  0
    5.2205    2.8258    0.0000 H   0  0  0  0  0  0  0  0  0  0  0  0
    4.2526    2.4254    0.0000 H   0  0  0  0  0  0  0  0  0  0  0  0
    4.5668    1.6068    0.0000 H   0  0  0  0  0  0  0  0  0  0  0  0
    2.9422   -3.2915    0.0000 H   0  0  0  0  0  0  0  0  0  0  0  0
    3.5951   -2.8343    0.0000 H   0  0  0  0  0  0  0  0  0  0  0  0
    1.9460   -2.1434    0.0000 H   0  0  0  0  0  0  0  0  0  0  0  0
    1.3824   -2.8150    0.0000 H   0  0  0  0  0  0  0  0  0  0  0  0
    2.0540   -3.3786    0.0000 H   0  0  0  0  0  0  0  0  0  0  0  0
  1  6  1  0  0  0  0
  1 13  1  0  0  0  0
  2 13  2  0  0  0  0
  3  4  1  0  0  0  0
  3  6  1  0  0  0  0
  3  7  1  0  0  0  0
  3 10  1  0  0  0  0
  4  5  1  0  0  0  0
  4 11  1  0  0  0  0
  4 12  1  0  0  0  0
  5  8  1  0  0  0  0
  5  9  1  0  0  0  0
  5 16  1  0  0  0  0
  6  8  1  0  0  0  0
  6 17  1  0  0  0  0
  7  9  1  0  0  0  0
  7 18  1  0  0  0  0
  7 19  1  0  0  0  0
  8 20  1  0  0  0  0
  8 21  1  0  0  0  0
  9 22  1  0  0  0  0
  9 23  1  0  0  0  0
 10 24  1  0  0  0  0
 10 25  1  0  0  0  0
 10 26  1  0  0  0  0
 11 28  1  0  0  0  0
 11 29  1  0  0  0  0
 11 30  1  0  0  0  0
 12 27  1  0  0  0  0
 12 31  1  0  0  0  0
 12 32  1  0  0  0  0
 13 14  1  0  0  0  0
 14 15  1  0  0  0  0
 14 33  1  0  0  0  0
 14 34  1  0  0  0  0
 15 35  1  0  0  0  0
 15 36  1  0  0  0  0
 15 37  1  0  0  0  0
M  END
> <PUBCHEM_COMPOUND_CID>
89306

> <PUBCHEM_COMPOUND_CANONICALIZED>
1

> <PUBCHEM_CACTVS_COMPLEXITY>
282

> <PUBCHEM_CACTVS_HBOND_ACCEPTOR>
2

> <PUBCHEM_CACTVS_HBOND_DONOR>
0

> <PUBCHEM_CACTVS_ROTATABLE_BOND>
3

> <PUBCHEM_CACTVS_SUBSKEYS>
AAADceBwMAAAAAAAAAAAAAAAAAAAAYMAAAAwAAAAAAAAAAAAAAAAGgAAAAAADxSggAICCAAABAAIAACQCAAAAAAAAAAAAAEAAAAAAAIAAAACAAAEAAAAAAGAwPAPgAAAAAAAAACAAAIAABAAAYAADAAAAA==

> <PUBCHEM_IUPAC_OPENEYE_NAME>
(1,7,7-trimethylnorbornan-2-yl) propanoate

> <PUBCHEM_IUPAC_CAS_NAME>
propanoic acid (1,7,7-trimethyl-2-bicyclo[2.2.1]heptanyl) ester

> <PUBCHEM_IUPAC_NAME>
(1,7,7-trimethyl-2-bicyclo[2.2.1]heptanyl) propanoate

> <PUBCHEM_IUPAC_SYSTEMATIC_NAME>
(1,7,7-trimethyl-2-bicyclo[2.2.1]heptanyl) propanoate

> <PUBCHEM_IUPAC_TRADITIONAL_NAME>
propionic acid 2-bornyl ester

> <PUBCHEM_IUPAC_INCHI>
InChI=1S/C13H22O2/c1-5-11(14)15-10-8-9-6-7-13(10,4)12(9,2)3/h9-10H,5-8H2,1-4H3

> <PUBCHEM_IUPAC_INCHIKEY>
FAFMZORPAAGQFV-UHFFFAOYSA-N

> <PUBCHEM_XLOGP3>
3.8

> <PUBCHEM_EXACT_MASS>
210.162

> <PUBCHEM_MOLECULAR_FORMULA>
C13H22O2

> <PUBCHEM_MOLECULAR_WEIGHT>
210.317

> <PUBCHEM_OPENEYE_CAN_SMILES>
CCC(=O)OC1CC2CCC1(C2(C)C)C

> <PUBCHEM_OPENEYE_ISO_SMILES>
CCC(=O)OC1CC2CCC1(C2(C)C)C

> <PUBCHEM_CACTVS_TPSA>
26.3

> <PUBCHEM_MONOISOTOPIC_WEIGHT>
210.162

> <PUBCHEM_TOTAL_CHARGE>
0

> <PUBCHEM_HEAVY_ATOM_COUNT>
15

> <PUBCHEM_ATOM_DEF_STEREO_COUNT>
0

> <PUBCHEM_ATOM_UDEF_STEREO_COUNT>
3

> <PUBCHEM_BOND_DEF_STEREO_COUNT>
0

> <PUBCHEM_BOND_UDEF_STEREO_COUNT>
0

> <PUBCHEM_ISOTOPIC_ATOM_COUNT>
0

> <PUBCHEM_COMPONENT_COUNT>
1

> <PUBCHEM_CACTVS_TAUTO_COUNT>
-1

> <PUBCHEM_COORDINATE_TYPE>
1
5
255

> <PUBCHEM_BONDANNOTATIONS>
6  1  3
3  4  3
5  4  3

$$$$
5464156
  -OEChem-02201912152D

 29 28  0     1  0  0  0  0  0999 V2000
    4.5981   -1.1900    0.0000 O   0  0  0  0  0  0  0  0  0  0  0  0
    5.4641    0.3100    0.0000 C   0  0  1  0  0  0  0  0  0  0  0  0
    4.5981    0.8100    0.0000 C   0  0  0  0  0  0  0  0  0  0  0  0
    5.4641   -0.6900    0.0000 C   0  0  0  0  0  0  0  0  0  0  0  0
    6.3301    0.8100    0.0000 C   0  0  0  0  0  0  0  0  0  0  0  0
    3.7320    0.3100    0.0000 C   0  0  0  0  0  0  0  0  0  0  0  0
    2.8660    0.8100    0.0000 C   0  0  0  0  0  0  0  0  0  0  0  0
    7.1962    0.3100    0.0000 C   0  0  0  0  0  0  0  0  0  0  0  0
    6.3301    1.8100    0.0000 C   0  0  0  0  0  0  0  0  0  0  0  0
    2.0000    0.3100    0.0000 C   0  0  0  0  0  0  0  0  0  0  0  0
    2.8660    1.8100    0.0000 C   0  0  0  0  0  0  0  0  0  0  0  0
    6.0010   -0.0000    0.0000 H   0  0  0  0  0  0  0  0  0  0  0  0
    4.9966    1.2850    0.0000 H   0  0  0  0  0  0  0  0  0  0  0  0
    4.1996    1.2850    0.0000 H   0  0  0  0  0  0  0  0  0  0  0  0
    5.6762   -1.2726    0.0000 H   0  0  0  0  0  0  0  0  0  0  0  0
    6.0747   -0.5823    0.0000 H   0  0  0  0  0  0  0  0  0  0  0  0
    3.7320   -0.3100    0.0000 H   0  0  0  0  0  0  0  0  0  0  0  0
    6.8862   -0.2269    0.0000 H   0  0  0  0  0  0  0  0  0  0  0  0
    7.7331   -0.0000    0.0000 H   0  0  0  0  0  0  0  0  0  0  0  0
    7.5062    0.8469    0.0000 H   0  0  0  0  0  0  0  0  0  0  0  0
    6.8671    2.1200    0.0000 H   0  0  0  0  0  0  0  0  0  0  0  0
    5.7932    2.1200    0.0000 H   0  0  0  0  0  0  0  0  0  0  0  0
    1.6900    0.8469    0.0000 H   0  0  0  0  0  0  0  0  0  0  0  0
    1.4631    0.0000    0.0000 H   0  0  0  0  0  0  0  0  0  0  0  0
    2.3100   -0.2269    0.0000 H   0  0  0  0  0  0  0  0  0  0  0  0
    3.4860    1.8100    0.0000 H   0  0  0  0  0  0  0  0  0  0  0  0
    2.8660    2.4300    0.0000 H   0  0  0  0  0  0  0  0  0  0  0  0
    2.2460    1.8100    0.0000 H   0  0  0  0  0  0  0  0  0  0  0  0
    4.5981   -1.8100    0.0000 H   0  0  0  0  0  0  0  0  0  0  0  0
  1  4  1  0  0  0  0
  1 29  1  0  0  0  0
  2  3  1  0  0  0  0
  2  4  1  6  0  0  0
  2  5  1  0  0  0  0
  2 12  1  0  0  0  0
  3  6  1  0  0  0  0
  3 13  1  0  0  0  0
  3 14  1  0  0  0  0
  4 15  1  0  0  0  0
  4 16  1  0  0  0  0
  5  8  1  0  0  0  0
  5  9  2  0  0  0  0
  6  7  2  0  0  0  0
  6 17  1  0  0  0  0
  7 10  1  0  0  0  0
  7 11  1  0  0  0  0
  8 18  1  0  0  0  0
  8 19  1  0  0  0  0
  8 20  1  0  0  0  0
  9 21  1  0  0  0  0
  9 22  1  0  0  0  0
 10 23  1  0  0  0  0
 10 24  1  0  0  0  0
 10 25  1  0  0  0  0
 11 26  1  0  0  0  0
 11 27  1  0  0  0  0
 11 28  1  0  0  0  0
M  END
> <PUBCHEM_COMPOUND_CID>
5464156

> <PUBCHEM_COMPOUND_CANONICALIZED>
1

> <PUBCHEM_CACTVS_COMPLEXITY>
152

> <PUBCHEM_CACTVS_HBOND_ACCEPTOR>
1

> <PUBCHEM_CACTVS_HBOND_DONOR>
1

> <PUBCHEM_CACTVS_ROTATABLE_BOND>
4

> <PUBCHEM_CACTVS_SUBSKEYS>
AAADceBwIAAAAAAAAAAAAAAAAAAAAAAAAAAAAAAAAAAAAAAAAAAAGgAACAAADQCggAICAAAAAgCAAiBCAAAAAAAgAAAACAAAAAgAEAIAAQAAQAAEwAAIAAIAAAAKAAAAAAAAAAAAAAAAAAAAAAAAAAAAAA==

> <PUBCHEM_IUPAC_OPENEYE_NAME>
(2~{R})-2-isopropenyl-5-methyl-hex-4-en-1-ol

> <PUBCHEM_IUPAC_CAS_NAME>
(2~{R})-5-methyl-2-(1-methylethenyl)-4-hexen-1-ol

> <PUBCHEM_IUPAC_NAME>
(2~{R})-5-methyl-2-prop-1-en-2-ylhex-4-en-1-ol

> <PUBCHEM_IUPAC_SYSTEMATIC_NAME>
(2~{R})-5-methyl-2-prop-1-en-2-yl-hex-4-en-1-ol

> <PUBCHEM_IUPAC_TRADITIONAL_NAME>
(2~{R})-2-isopropenyl-5-methyl-hex-4-en-1-ol

> <PUBCHEM_IUPAC_INCHI>
InChI=1S/C10H18O/c1-8(2)5-6-10(7-11)9(3)4/h5,10-11H,3,6-7H2,1-2,4H3/t10-/m0/s1

> <PUBCHEM_IUPAC_INCHIKEY>
CZVXBFUKBZRMKR-JTQLQIEISA-N

> <PUBCHEM_XLOGP3_AA>
3

> <PUBCHEM_EXACT_MASS>
154.136

> <PUBCHEM_MOLECULAR_FORMULA>
C10H18O

> <PUBCHEM_MOLECULAR_WEIGHT>
154.253

> <PUBCHEM_OPENEYE_CAN_SMILES>
CC(=CCC(CO)C(=C)C)C

> <PUBCHEM_OPENEYE_ISO_SMILES>
CC(=CC[C@@H](CO)C(=C)C)C

> <PUBCHEM_CACTVS_TPSA>
20.2

> <PUBCHEM_MONOISOTOPIC_WEIGHT>
154.136

> <PUBCHEM_TOTAL_CHARGE>
0

> <PUBCHEM_HEAVY_ATOM_COUNT>
11

> <PUBCHEM_ATOM_DEF_STEREO_COUNT>
1

> <PUBCHEM_ATOM_UDEF_STEREO_COUNT>
0

> <PUBCHEM_BOND_DEF_STEREO_COUNT>
0

> <PUBCHEM_BOND_UDEF_STEREO_COUNT>
0

> <PUBCHEM_ISOTOPIC_ATOM_COUNT>
0

> <PUBCHEM_COMPONENT_COUNT>
1

> <PUBCHEM_CACTVS_TAUTO_COUNT>
1

> <PUBCHEM_COORDINATE_TYPE>
1
5
255

> <PUBCHEM_BONDANNOTATIONS>
2  4  6

$$$$
6428244
  -OEChem-02201912152D

 30 30  0     1  0  0  0  0  0999 V2000
    5.9150   -0.2020    0.0000 O   0  0  0  0  0  0  0  0  0  0  0  0
    2.4608    0.4368    0.0000 O   0  0  0  0  0  0  0  0  0  0  0  0
    5.1060    0.3858    0.0000 C   0  0  1  0  0  0  0  0  0  0  0  0
    6.7240    0.3858    0.0000 C   0  0  2  0  0  0  0  0  0  0  0  0
    5.4150    1.3368    0.0000 C   0  0  0  0  0  0  0  0  0  0  0  0
    6.4150    1.3368    0.0000 C   0  0  0  0  0  0  0  0  0  0  0  0
    4.1550    0.0767    0.0000 C   0  0  3  0  0  0  0  0  0  0  0  0
    7.6751    0.6948    0.0000 C   0  0  0  0  0  0  0  0  0  0  0  0
    3.4118    0.7459    0.0000 C   0  0  0  0  0  0  0  0  0  0  0  0
    7.3118   -0.4233    0.0000 C   0  0  0  0  0  0  0  0  0  0  0  0
    3.9470   -0.9014    0.0000 C   0  0  0  0  0  0  0  0  0  0  0  0
    6.9051   -1.3368    0.0000 C   0  0  0  0  0  0  0  0  0  0  0  0
    5.5444   -0.0527    0.0000 H   0  0  0  0  0  0  0  0  0  0  0  0
    5.4798    1.9534    0.0000 H   0  0  0  0  0  0  0  0  0  0  0  0
    4.8086    1.4657    0.0000 H   0  0  0  0  0  0  0  0  0  0  0  0
    7.0215    1.4657    0.0000 H   0  0  0  0  0  0  0  0  0  0  0  0
    6.3502    1.9534    0.0000 H   0  0  0  0  0  0  0  0  0  0  0  0
    4.6157   -0.3381    0.0000 H   0  0  0  0  0  0  0  0  0  0  0  0
    7.8667    0.1051    0.0000 H   0  0  0  0  0  0  0  0  0  0  0  0
    8.2648    0.8864    0.0000 H   0  0  0  0  0  0  0  0  0  0  0  0
    7.4835    1.2844    0.0000 H   0  0  0  0  0  0  0  0  0  0  0  0
    3.9004    1.1276    0.0000 H   0  0  0  0  0  0  0  0  0  0  0  0
    3.1207    1.2933    0.0000 H   0  0  0  0  0  0  0  0  0  0  0  0
    7.9284   -0.3585    0.0000 H   0  0  0  0  0  0  0  0  0  0  0  0
    3.3406   -0.7725    0.0000 H   0  0  0  0  0  0  0  0  0  0  0  0
    3.8181   -1.5079    0.0000 H   0  0  0  0  0  0  0  0  0  0  0  0
    4.5535   -1.0303    0.0000 H   0  0  0  0  0  0  0  0  0  0  0  0
    6.2885   -1.4016    0.0000 H   0  0  0  0  0  0  0  0  0  0  0  0
    7.2695   -1.8384    0.0000 H   0  0  0  0  0  0  0  0  0  0  0  0
    2.0000    0.8517    0.0000 H   0  0  0  0  0  0  0  0  0  0  0  0
  1  3  1  0  0  0  0
  1  4  1  0  0  0  0
  2  9  1  0  0  0  0
  2 30  1  0  0  0  0
  3  5  1  0  0  0  0
  3  7  1  6  0  0  0
  3 13  1  0  0  0  0
  4  6  1  0  0  0  0
  4  8  1  6  0  0  0
  4 10  1  0  0  0  0
  5  6  1  0  0  0  0
  5 14  1  0  0  0  0
  5 15  1  0  0  0  0
  6 16  1  0  0  0  0
  6 17  1  0  0  0  0
  7  9  1  0  0  0  0
  7 11  1  0  0  0  0
  7 18  1  0  0  0  0
  8 19  1  0  0  0  0
  8 20  1  0  0  0  0
  8 21  1  0  0  0  0
  9 22  1  0  0  0  0
  9 23  1  0  0  0  0
 10 12  2  0  0  0  0
 10 24  1  0  0  0  0
 11 25  1  0  0  0  0
 11 26  1  0  0  0  0
 11 27  1  0  0  0  0
 12 28  1  0  0  0  0
 12 29  1  0  0  0  0
M  END
> <PUBCHEM_COMPOUND_CID>
6428244

> <PUBCHEM_COMPOUND_CANONICALIZED>
1

> <PUBCHEM_CACTVS_COMPLEXITY>
167

> <PUBCHEM_CACTVS_HBOND_ACCEPTOR>
2

> <PUBCHEM_CACTVS_HBOND_DONOR>
1

> <PUBCHEM_CACTVS_ROTATABLE_BOND>
3

> <PUBCHEM_CACTVS_SUBSKEYS>
AAADceBwMAAAAAAAAAAAAAAAAAAAASAAAAAAAAAAAAAAAAAAAAAAGgAACAAADVSggAICAAAABgCAACBCAAAAAAAgAAAIAAAAAAgAFAIAIAACQAAFgAAAIAGAwHAMAAAAAAAAAAAAAAAAAAAAAAAAAAAAAA==

> <PUBCHEM_IUPAC_OPENEYE_NAME>
2-[(2~{S},5~{S})-5-methyl-5-vinyl-tetrahydrofuran-2-yl]propan-1-ol

> <PUBCHEM_IUPAC_CAS_NAME>
2-[(2~{S},5~{S})-5-ethenyl-5-methyl-2-oxolanyl]-1-propanol

> <PUBCHEM_IUPAC_NAME>
2-[(2~{S},5~{S})-5-ethenyl-5-methyloxolan-2-yl]propan-1-ol

> <PUBCHEM_IUPAC_SYSTEMATIC_NAME>
2-[(2~{S},5~{S})-5-ethenyl-5-methyl-oxolan-2-yl]propan-1-ol

> <PUBCHEM_IUPAC_TRADITIONAL_NAME>
2-[(2~{S},5~{S})-5-methyl-5-vinyl-tetrahydrofuran-2-yl]propan-1-ol

> <PUBCHEM_IUPAC_INCHI>
InChI=1S/C10H18O2/c1-4-10(3)6-5-9(12-10)8(2)7-11/h4,8-9,11H,1,5-7H2,2-3H3/t8?,9-,10+/m0/s1

> <PUBCHEM_IUPAC_INCHIKEY>
VUEGXHXUMOZKKN-CBMCFHRWSA-N

> <PUBCHEM_XLOGP3_AA>
1.6

> <PUBCHEM_EXACT_MASS>
170.131

> <PUBCHEM_MOLECULAR_FORMULA>
C10H18O2

> <PUBCHEM_MOLECULAR_WEIGHT>
170.252

> <PUBCHEM_OPENEYE_CAN_SMILES>
CC(CO)C1CCC(O1)(C)C=C

> <PUBCHEM_OPENEYE_ISO_SMILES>
CC(CO)[C@@H]1CC[C@@](O1)(C)C=C

> <PUBCHEM_CACTVS_TPSA>
29.5

> <PUBCHEM_MONOISOTOPIC_WEIGHT>
170.131

> <PUBCHEM_TOTAL_CHARGE>
0

> <PUBCHEM_HEAVY_ATOM_COUNT>
12

> <PUBCHEM_ATOM_DEF_STEREO_COUNT>
2

> <PUBCHEM_ATOM_UDEF_STEREO_COUNT>
1

> <PUBCHEM_BOND_DEF_STEREO_COUNT>
0

> <PUBCHEM_BOND_UDEF_STEREO_COUNT>
0

> <PUBCHEM_ISOTOPIC_ATOM_COUNT>
0

> <PUBCHEM_COMPONENT_COUNT>
1

> <PUBCHEM_CACTVS_TAUTO_COUNT>
-1

> <PUBCHEM_COORDINATE_TYPE>
1
5
255

> <PUBCHEM_BONDANNOTATIONS>
3  7  6
4  8  6
7  11  3

$$$$
155007
  -OEChem-02201912152D

 28 28  0     1  0  0  0  0  0999 V2000
    5.4543   -0.2098    0.0000 O   0  0  0  0  0  0  0  0  0  0  0  0
    2.0000    0.4291    0.0000 O   0  0  0  0  0  0  0  0  0  0  0  0
    4.6453    0.3780    0.0000 C   0  0  3  0  0  0  0  0  0  0  0  0
    6.2633    0.3780    0.0000 C   0  0  3  0  0  0  0  0  0  0  0  0
    4.9543    1.3291    0.0000 C   0  0  0  0  0  0  0  0  0  0  0  0
    5.9543    1.3291    0.0000 C   0  0  0  0  0  0  0  0  0  0  0  0
    3.6942    0.0690    0.0000 C   0  0  3  0  0  0  0  0  0  0  0  0
    7.2144    0.6870    0.0000 C   0  0  0  0  0  0  0  0  0  0  0  0
    6.8511   -0.4310    0.0000 C   0  0  0  0  0  0  0  0  0  0  0  0
    3.4863   -0.9092    0.0000 C   0  0  0  0  0  0  0  0  0  0  0  0
    2.9511    0.7381    0.0000 C   0  0  0  0  0  0  0  0  0  0  0  0
    6.4443   -1.3446    0.0000 C   0  0  0  0  0  0  0  0  0  0  0  0
    4.5483   -0.2344    0.0000 H   0  0  0  0  0  0  0  0  0  0  0  0
    5.0191    1.9457    0.0000 H   0  0  0  0  0  0  0  0  0  0  0  0
    4.3478    1.4580    0.0000 H   0  0  0  0  0  0  0  0  0  0  0  0
    6.5607    1.4580    0.0000 H   0  0  0  0  0  0  0  0  0  0  0  0
    5.8895    1.9457    0.0000 H   0  0  0  0  0  0  0  0  0  0  0  0
    3.1046   -0.1226    0.0000 H   0  0  0  0  0  0  0  0  0  0  0  0
    7.4059    0.0974    0.0000 H   0  0  0  0  0  0  0  0  0  0  0  0
    7.8040    0.8786    0.0000 H   0  0  0  0  0  0  0  0  0  0  0  0
    7.0228    1.2767    0.0000 H   0  0  0  0  0  0  0  0  0  0  0  0
    7.4677   -0.3662    0.0000 H   0  0  0  0  0  0  0  0  0  0  0  0
    2.8798   -0.7803    0.0000 H   0  0  0  0  0  0  0  0  0  0  0  0
    3.3574   -1.5156    0.0000 H   0  0  0  0  0  0  0  0  0  0  0  0
    4.0927   -1.0381    0.0000 H   0  0  0  0  0  0  0  0  0  0  0  0
    3.0800    1.3446    0.0000 H   0  0  0  0  0  0  0  0  0  0  0  0
    5.8277   -1.4094    0.0000 H   0  0  0  0  0  0  0  0  0  0  0  0
    6.8088   -1.8462    0.0000 H   0  0  0  0  0  0  0  0  0  0  0  0
  1  3  1  0  0  0  0
  1  4  1  0  0  0  0
  2 11  2  0  0  0  0
  3  5  1  0  0  0  0
  3  7  1  0  0  0  0
  3 13  1  0  0  0  0
  4  6  1  0  0  0  0
  4  8  1  0  0  0  0
  4  9  1  0  0  0  0
  5  6  1  0  0  0  0
  5 14  1  0  0  0  0
  5 15  1  0  0  0  0
  6 16  1  0  0  0  0
  6 17  1  0  0  0  0
  7 10  1  0  0  0  0
  7 11  1  0  0  0  0
  7 18  1  0  0  0  0
  8 19  1  0  0  0  0
  8 20  1  0  0  0  0
  8 21  1  0  0  0  0
  9 12  2  0  0  0  0
  9 22  1  0  0  0  0
 10 23  1  0  0  0  0
 10 24  1  0  0  0  0
 10 25  1  0  0  0  0
 11 26  1  0  0  0  0
 12 27  1  0  0  0  0
 12 28  1  0  0  0  0
M  END
> <PUBCHEM_COMPOUND_CID>
155007

> <PUBCHEM_COMPOUND_CANONICALIZED>
1

> <PUBCHEM_CACTVS_COMPLEXITY>
188

> <PUBCHEM_CACTVS_HBOND_ACCEPTOR>
2

> <PUBCHEM_CACTVS_HBOND_DONOR>
0

> <PUBCHEM_CACTVS_ROTATABLE_BOND>
3

> <PUBCHEM_CACTVS_SUBSKEYS>
AAADceBwMAAAAAAAAAAAAAAAAAAAASAAAAAAAAAAAAAAAAAAAAAAGgAAAAAADVSggAICAAAABACIAChSgAAAAAAgAAAIAAEAAAgABBYAIAACAAAEoAAAIAGIyFCMAAAAAAAAAAAAAAAAAAAAAAAAAAAAAA==

> <PUBCHEM_IUPAC_OPENEYE_NAME>
2-(5-methyl-5-vinyl-tetrahydrofuran-2-yl)propanal

> <PUBCHEM_IUPAC_CAS_NAME>
2-(5-ethenyl-5-methyl-2-oxolanyl)propanal

> <PUBCHEM_IUPAC_NAME>
2-(5-ethenyl-5-methyloxolan-2-yl)propanal

> <PUBCHEM_IUPAC_SYSTEMATIC_NAME>
2-(5-ethenyl-5-methyl-oxolan-2-yl)propanal

> <PUBCHEM_IUPAC_TRADITIONAL_NAME>
2-(5-methyl-5-vinyl-tetrahydrofuran-2-yl)propionaldehyde

> <PUBCHEM_IUPAC_INCHI>
InChI=1S/C10H16O2/c1-4-10(3)6-5-9(12-10)8(2)7-11/h4,7-9H,1,5-6H2,2-3H3

> <PUBCHEM_IUPAC_INCHIKEY>
YPZQHCLBLRWNMJ-UHFFFAOYSA-N

> <PUBCHEM_XLOGP3_AA>
1.5

> <PUBCHEM_EXACT_MASS>
168.115

> <PUBCHEM_MOLECULAR_FORMULA>
C10H16O2

> <PUBCHEM_MOLECULAR_WEIGHT>
168.236

> <PUBCHEM_OPENEYE_CAN_SMILES>
CC(C=O)C1CCC(O1)(C)C=C

> <PUBCHEM_OPENEYE_ISO_SMILES>
CC(C=O)C1CCC(O1)(C)C=C

> <PUBCHEM_CACTVS_TPSA>
26.3

> <PUBCHEM_MONOISOTOPIC_WEIGHT>
168.115

> <PUBCHEM_TOTAL_CHARGE>
0

> <PUBCHEM_HEAVY_ATOM_COUNT>
12

> <PUBCHEM_ATOM_DEF_STEREO_COUNT>
0

> <PUBCHEM_ATOM_UDEF_STEREO_COUNT>
3

> <PUBCHEM_BOND_DEF_STEREO_COUNT>
0

> <PUBCHEM_BOND_UDEF_STEREO_COUNT>
0

> <PUBCHEM_ISOTOPIC_ATOM_COUNT>
0

> <PUBCHEM_COMPONENT_COUNT>
1

> <PUBCHEM_CACTVS_TAUTO_COUNT>
-1

> <PUBCHEM_COORDINATE_TYPE>
1
5
255

> <PUBCHEM_BONDANNOTATIONS>
3  5  3
4  8  3
7  10  3

$$$$
440917
  -OEChem-02201912152D

 26 26  0     1  0  0  0  0  0999 V2000
    2.8660    0.7500    0.0000 C   0  0  2  0  0  0  0  0  0  0  0  0
    2.0000    0.2500    0.0000 C   0  0  0  0  0  0  0  0  0  0  0  0
    3.7320    0.2500    0.0000 C   0  0  0  0  0  0  0  0  0  0  0  0
    2.0000   -0.7500    0.0000 C   0  0  0  0  0  0  0  0  0  0  0  0
    2.8660   -1.2500    0.0000 C   0  0  0  0  0  0  0  0  0  0  0  0
    3.7320   -0.7500    0.0000 C   0  0  0  0  0  0  0  0  0  0  0  0
    2.8660    1.7500    0.0000 C   0  0  0  0  0  0  0  0  0  0  0  0
    2.8660   -2.2500    0.0000 C   0  0  0  0  0  0  0  0  0  0  0  0
    3.7320    2.2500    0.0000 C   0  0  0  0  0  0  0  0  0  0  0  0
    2.0000    2.2500    0.0000 C   0  0  0  0  0  0  0  0  0  0  0  0
    3.4030    1.0600    0.0000 H   0  0  0  0  0  0  0  0  0  0  0  0
    1.7880    0.8326    0.0000 H   0  0  0  0  0  0  0  0  0  0  0  0
    1.3894    0.1423    0.0000 H   0  0  0  0  0  0  0  0  0  0  0  0
    4.3426    0.1423    0.0000 H   0  0  0  0  0  0  0  0  0  0  0  0
    3.9441    0.8326    0.0000 H   0  0  0  0  0  0  0  0  0  0  0  0
    1.3894   -0.6423    0.0000 H   0  0  0  0  0  0  0  0  0  0  0  0
    1.7880   -1.3326    0.0000 H   0  0  0  0  0  0  0  0  0  0  0  0
    4.2690   -1.0600    0.0000 H   0  0  0  0  0  0  0  0  0  0  0  0
    2.2460   -2.2500    0.0000 H   0  0  0  0  0  0  0  0  0  0  0  0
    2.8660   -2.8700    0.0000 H   0  0  0  0  0  0  0  0  0  0  0  0
    3.4860   -2.2500    0.0000 H   0  0  0  0  0  0  0  0  0  0  0  0
    4.0420    1.7131    0.0000 H   0  0  0  0  0  0  0  0  0  0  0  0
    4.2690    2.5600    0.0000 H   0  0  0  0  0  0  0  0  0  0  0  0
    3.4220    2.7869    0.0000 H   0  0  0  0  0  0  0  0  0  0  0  0
    2.0000    2.8700    0.0000 H   0  0  0  0  0  0  0  0  0  0  0  0
    1.4631    1.9400    0.0000 H   0  0  0  0  0  0  0  0  0  0  0  0
  1  2  1  0  0  0  0
  1  3  1  0  0  0  0
  1  7  1  1  0  0  0
  1 11  1  0  0  0  0
  2  4  1  0  0  0  0
  2 12  1  0  0  0  0
  2 13  1  0  0  0  0
  3  6  1  0  0  0  0
  3 14  1  0  0  0  0
  3 15  1  0  0  0  0
  4  5  1  0  0  0  0
  4 16  1  0  0  0  0
  4 17  1  0  0  0  0
  5  6  2  0  0  0  0
  5  8  1  0  0  0  0
  6 18  1  0  0  0  0
  7  9  1  0  0  0  0
  7 10  2  0  0  0  0
  8 19  1  0  0  0  0
  8 20  1  0  0  0  0
  8 21  1  0  0  0  0
  9 22  1  0  0  0  0
  9 23  1  0  0  0  0
  9 24  1  0  0  0  0
 10 25  1  0  0  0  0
 10 26  1  0  0  0  0
M  END
> <PUBCHEM_COMPOUND_CID>
440917

> <PUBCHEM_COMPOUND_CANONICALIZED>
1

> <PUBCHEM_CACTVS_COMPLEXITY>
163

> <PUBCHEM_CACTVS_HBOND_ACCEPTOR>
0

> <PUBCHEM_CACTVS_HBOND_DONOR>
0

> <PUBCHEM_CACTVS_ROTATABLE_BOND>
1

> <PUBCHEM_CACTVS_SUBSKEYS>
AAADceBwAAAAAAAAAAAAAAAAAAAAAAAAAAAgAAAAAAAAAAAAAAAAGAAAAAAADQCAAAACAAAAAACAAiBCAAAAAAAgAAAACAAAAAgAAAIAAQAAAAAAgAAIAAMAgAAOAAAAAAAAAAAAAAAAAAAAAAAAAAAAAA==

> <PUBCHEM_IUPAC_OPENEYE_NAME>
(4~{R})-4-isopropenyl-1-methyl-cyclohexene

> <PUBCHEM_IUPAC_CAS_NAME>
(4~{R})-1-methyl-4-(1-methylethenyl)cyclohexene

> <PUBCHEM_IUPAC_NAME>
(4~{R})-1-methyl-4-prop-1-en-2-ylcyclohexene

> <PUBCHEM_IUPAC_SYSTEMATIC_NAME>
(4~{R})-1-methyl-4-prop-1-en-2-yl-cyclohexene

> <PUBCHEM_IUPAC_TRADITIONAL_NAME>
(4~{R})-4-isopropenyl-1-methyl-cyclohexene

> <PUBCHEM_IUPAC_INCHI>
InChI=1S/C10H16/c1-8(2)10-6-4-9(3)5-7-10/h4,10H,1,5-7H2,2-3H3/t10-/m0/s1

> <PUBCHEM_IUPAC_INCHIKEY>
XMGQYMWWDOXHJM-JTQLQIEISA-N

> <PUBCHEM_XLOGP3_AA>
3.4

> <PUBCHEM_EXACT_MASS>
136.125

> <PUBCHEM_MOLECULAR_FORMULA>
C10H16

> <PUBCHEM_MOLECULAR_WEIGHT>
136.238

> <PUBCHEM_OPENEYE_CAN_SMILES>
CC1=CCC(CC1)C(=C)C

> <PUBCHEM_OPENEYE_ISO_SMILES>
CC1=CC[C@@H](CC1)C(=C)C

> <PUBCHEM_CACTVS_TPSA>
0

> <PUBCHEM_MONOISOTOPIC_WEIGHT>
136.125

> <PUBCHEM_TOTAL_CHARGE>
0

> <PUBCHEM_HEAVY_ATOM_COUNT>
10

> <PUBCHEM_ATOM_DEF_STEREO_COUNT>
1

> <PUBCHEM_ATOM_UDEF_STEREO_COUNT>
0

> <PUBCHEM_BOND_DEF_STEREO_COUNT>
0

> <PUBCHEM_BOND_UDEF_STEREO_COUNT>
0

> <PUBCHEM_ISOTOPIC_ATOM_COUNT>
0

> <PUBCHEM_COMPONENT_COUNT>
1

> <PUBCHEM_CACTVS_TAUTO_COUNT>
1

> <PUBCHEM_COORDINATE_TYPE>
1
5
255

> <PUBCHEM_BONDANNOTATIONS>
1  7  5

$$$$
232703
  -OEChem-02201912152D

 28 30  0     1  0  0  0  0  0999 V2000
    6.3306    0.1830    0.0000 O   0  0  0  0  0  0  0  0  0  0  0  0
    2.3660   -1.6830    0.0000 O   0  0  0  0  0  0  0  0  0  0  0  0
    5.4641    0.6830    0.0000 C   0  0  3  0  0  0  0  0  0  0  0  0
    5.4641   -0.3170    0.0000 C   0  0  3  0  0  0  0  0  0  0  0  0
    3.7320   -0.3170    0.0000 C   0  0  3  0  0  0  0  0  0  0  0  0
    2.8660   -0.8170    0.0000 C   0  0  3  0  0  0  0  0  0  0  0  0
    4.5981   -0.8170    0.0000 C   0  0  0  0  0  0  0  0  0  0  0  0
    4.5981    1.1830    0.0000 C   0  0  0  0  0  0  0  0  0  0  0  0
    3.7320    0.6830    0.0000 C   0  0  0  0  0  0  0  0  0  0  0  0
    3.3660   -1.6830    0.0000 C   0  0  0  0  0  0  0  0  0  0  0  0
    5.4641    1.6830    0.0000 C   0  0  0  0  0  0  0  0  0  0  0  0
    2.0000   -0.3170    0.0000 C   0  0  0  0  0  0  0  0  0  0  0  0
    5.7740   -0.8540    0.0000 H   0  0  0  0  0  0  0  0  0  0  0  0
    3.7320   -0.9370    0.0000 H   0  0  0  0  0  0  0  0  0  0  0  0
    4.1996   -1.2919    0.0000 H   0  0  0  0  0  0  0  0  0  0  0  0
    4.9966   -1.2919    0.0000 H   0  0  0  0  0  0  0  0  0  0  0  0
    4.9966    1.6580    0.0000 H   0  0  0  0  0  0  0  0  0  0  0  0
    4.1996    1.6580    0.0000 H   0  0  0  0  0  0  0  0  0  0  0  0
    3.5200    1.2656    0.0000 H   0  0  0  0  0  0  0  0  0  0  0  0
    3.1215    0.5754    0.0000 H   0  0  0  0  0  0  0  0  0  0  0  0
    3.4737   -2.2936    0.0000 H   0  0  0  0  0  0  0  0  0  0  0  0
    3.9486   -1.4710    0.0000 H   0  0  0  0  0  0  0  0  0  0  0  0
    6.0841    1.6830    0.0000 H   0  0  0  0  0  0  0  0  0  0  0  0
    5.4641    2.3030    0.0000 H   0  0  0  0  0  0  0  0  0  0  0  0
    4.8441    1.6830    0.0000 H   0  0  0  0  0  0  0  0  0  0  0  0
    2.3100    0.2199    0.0000 H   0  0  0  0  0  0  0  0  0  0  0  0
    1.4631   -0.0070    0.0000 H   0  0  0  0  0  0  0  0  0  0  0  0
    1.6900   -0.8539    0.0000 H   0  0  0  0  0  0  0  0  0  0  0  0
  1  3  1  0  0  0  0
  1  4  1  0  0  0  0
  2  6  1  0  0  0  0
  2 10  1  0  0  0  0
  3  4  1  0  0  0  0
  3  8  1  0  0  0  0
  3 11  1  0  0  0  0
  4  7  1  0  0  0  0
  4 13  1  0  0  0  0
  5  6  1  0  0  0  0
  5  7  1  0  0  0  0
  5  9  1  0  0  0  0
  5 14  1  0  0  0  0
  6 10  1  0  0  0  0
  6 12  1  0  0  0  0
  7 15  1  0  0  0  0
  7 16  1  0  0  0  0
  8  9  1  0  0  0  0
  8 17  1  0  0  0  0
  8 18  1  0  0  0  0
  9 19  1  0  0  0  0
  9 20  1  0  0  0  0
 10 21  1  0  0  0  0
 10 22  1  0  0  0  0
 11 23  1  0  0  0  0
 11 24  1  0  0  0  0
 11 25  1  0  0  0  0
 12 26  1  0  0  0  0
 12 27  1  0  0  0  0
 12 28  1  0  0  0  0
M  END
> <PUBCHEM_COMPOUND_CID>
232703

> <PUBCHEM_COMPOUND_CANONICALIZED>
1

> <PUBCHEM_CACTVS_COMPLEXITY>
228

> <PUBCHEM_CACTVS_HBOND_ACCEPTOR>
2

> <PUBCHEM_CACTVS_HBOND_DONOR>
0

> <PUBCHEM_CACTVS_ROTATABLE_BOND>
1

> <PUBCHEM_CACTVS_SUBSKEYS>
AAADceBwMAAAAAAAAAAAAAAAEiQAAAAAAAAwAAAABIAAAAAAAAAAGgAAAAAADVSggAICAAAABAAAAAAAAAAAAAAAAAAAAAAAAAAAAAIAAAACAAAEAAAAAAHA4PwOgAAAAAAAAADAAAIAABAAAAAAAAAAAA==

> <PUBCHEM_IUPAC_OPENEYE_NAME>
1-methyl-4-(2-methyloxiran-2-yl)-7-oxabicyclo[4.1.0]heptane

> <PUBCHEM_IUPAC_CAS_NAME>
1-methyl-4-(2-methyl-2-oxiranyl)-7-oxabicyclo[4.1.0]heptane

> <PUBCHEM_IUPAC_NAME>
1-methyl-4-(2-methyloxiran-2-yl)-7-oxabicyclo[4.1.0]heptane

> <PUBCHEM_IUPAC_SYSTEMATIC_NAME>
1-methyl-4-(2-methyloxiran-2-yl)-7-oxabicyclo[4.1.0]heptane

> <PUBCHEM_IUPAC_TRADITIONAL_NAME>
1-methyl-4-(2-methyloxiran-2-yl)-7-oxabicyclo[4.1.0]heptane

> <PUBCHEM_IUPAC_INCHI>
InChI=1S/C10H16O2/c1-9-4-3-7(5-8(9)12-9)10(2)6-11-10/h7-8H,3-6H2,1-2H3

> <PUBCHEM_IUPAC_INCHIKEY>
RBHIUNHSNSQJNG-UHFFFAOYSA-N

> <PUBCHEM_XLOGP3_AA>
1.1

> <PUBCHEM_EXACT_MASS>
168.115

> <PUBCHEM_MOLECULAR_FORMULA>
C10H16O2

> <PUBCHEM_MOLECULAR_WEIGHT>
168.236

> <PUBCHEM_OPENEYE_CAN_SMILES>
CC12CCC(CC1O2)C3(CO3)C

> <PUBCHEM_OPENEYE_ISO_SMILES>
CC12CCC(CC1O2)C3(CO3)C

> <PUBCHEM_CACTVS_TPSA>
25.1

> <PUBCHEM_MONOISOTOPIC_WEIGHT>
168.115

> <PUBCHEM_TOTAL_CHARGE>
0

> <PUBCHEM_HEAVY_ATOM_COUNT>
12

> <PUBCHEM_ATOM_DEF_STEREO_COUNT>
0

> <PUBCHEM_ATOM_UDEF_STEREO_COUNT>
4

> <PUBCHEM_BOND_DEF_STEREO_COUNT>
0

> <PUBCHEM_BOND_UDEF_STEREO_COUNT>
0

> <PUBCHEM_ISOTOPIC_ATOM_COUNT>
0

> <PUBCHEM_COMPONENT_COUNT>
1

> <PUBCHEM_CACTVS_TAUTO_COUNT>
-1

> <PUBCHEM_COORDINATE_TYPE>
1
5
255

> <PUBCHEM_BONDANNOTATIONS>
3  11  3
4  7  3
6  5  3
5  9  3

$$$$
537453
  -OEChem-02201912152D

 31 32  0     1  0  0  0  0  0999 V2000
    3.3660   -1.3476    0.0000 O   0  0  0  0  0  0  0  0  0  0  0  0
    7.8301    1.3845    0.0000 O   0  0  0  0  0  0  0  0  0  0  0  0
    6.9641   -0.8476    0.0000 O   0  0  0  0  0  0  0  0  0  0  0  0
    3.8660   -0.4815    0.0000 C   0  0  3  0  0  0  0  0  0  0  0  0
    2.8660   -0.4815    0.0000 C   0  0  0  0  0  0  0  0  0  0  0  0
    4.7320    0.0185    0.0000 C   0  0  0  0  0  0  0  0  0  0  0  0
    6.4641    0.0185    0.0000 C   0  0  3  0  0  0  0  0  0  0  0  0
    5.5981   -0.4815    0.0000 C   0  0  0  0  0  0  0  0  0  0  0  0
    7.3301    0.5185    0.0000 C   0  0  3  0  0  0  0  0  0  0  0  0
    8.3301    0.5185    0.0000 C   0  0  0  0  0  0  0  0  0  0  0  0
    2.8660    0.5185    0.0000 C   0  0  0  0  0  0  0  0  0  0  0  0
    2.0000   -0.9815    0.0000 C   0  0  0  0  0  0  0  0  0  0  0  0
    5.9641    0.8845    0.0000 C   0  0  0  0  0  0  0  0  0  0  0  0
    4.3044   -0.9199    0.0000 H   0  0  0  0  0  0  0  0  0  0  0  0
    5.1306    0.4934    0.0000 H   0  0  0  0  0  0  0  0  0  0  0  0
    4.3335    0.4934    0.0000 H   0  0  0  0  0  0  0  0  0  0  0  0
    5.1996   -0.9565    0.0000 H   0  0  0  0  0  0  0  0  0  0  0  0
    5.9966   -0.9565    0.0000 H   0  0  0  0  0  0  0  0  0  0  0  0
    6.8917    0.9569    0.0000 H   0  0  0  0  0  0  0  0  0  0  0  0
    8.4378   -0.0921    0.0000 H   0  0  0  0  0  0  0  0  0  0  0  0
    8.9127    0.7305    0.0000 H   0  0  0  0  0  0  0  0  0  0  0  0
    3.4860    0.5185    0.0000 H   0  0  0  0  0  0  0  0  0  0  0  0
    2.8660    1.1385    0.0000 H   0  0  0  0  0  0  0  0  0  0  0  0
    2.2460    0.5185    0.0000 H   0  0  0  0  0  0  0  0  0  0  0  0
    1.6900   -0.4446    0.0000 H   0  0  0  0  0  0  0  0  0  0  0  0
    1.4631   -1.2915    0.0000 H   0  0  0  0  0  0  0  0  0  0  0  0
    2.3100   -1.5185    0.0000 H   0  0  0  0  0  0  0  0  0  0  0  0
    6.5010    1.1945    0.0000 H   0  0  0  0  0  0  0  0  0  0  0  0
    5.6541    1.4214    0.0000 H   0  0  0  0  0  0  0  0  0  0  0  0
    5.4272    0.5745    0.0000 H   0  0  0  0  0  0  0  0  0  0  0  0
    6.6541   -1.3845    0.0000 H   0  0  0  0  0  0  0  0  0  0  0  0
  1  4  1  0  0  0  0
  1  5  1  0  0  0  0
  2  9  1  0  0  0  0
  2 10  1  0  0  0  0
  3  7  1  0  0  0  0
  3 31  1  0  0  0  0
  4  5  1  0  0  0  0
  4  6  1  0  0  0  0
  4 14  1  0  0  0  0
  5 11  1  0  0  0  0
  5 12  1  0  0  0  0
  6  8  1  0  0  0  0
  6 15  1  0  0  0  0
  6 16  1  0  0  0  0
  7  8  1  0  0  0  0
  7  9  1  0  0  0  0
  7 13  1  0  0  0  0
  8 17  1  0  0  0  0
  8 18  1  0  0  0  0
  9 10  1  0  0  0  0
  9 19  1  0  0  0  0
 10 20  1  0  0  0  0
 10 21  1  0  0  0  0
 11 22  1  0  0  0  0
 11 23  1  0  0  0  0
 11 24  1  0  0  0  0
 12 25  1  0  0  0  0
 12 26  1  0  0  0  0
 12 27  1  0  0  0  0
 13 28  1  0  0  0  0
 13 29  1  0  0  0  0
 13 30  1  0  0  0  0
M  END
> <PUBCHEM_COMPOUND_CID>
537453

> <PUBCHEM_COMPOUND_CANONICALIZED>
1

> <PUBCHEM_CACTVS_COMPLEXITY>
214

> <PUBCHEM_CACTVS_HBOND_ACCEPTOR>
3

> <PUBCHEM_CACTVS_HBOND_DONOR>
1

> <PUBCHEM_CACTVS_ROTATABLE_BOND>
4

> <PUBCHEM_CACTVS_SUBSKEYS>
AAADceBwMAAAAAAAAAAAAAAAEiQAAAAAAAAAAAAAAAAAAAAAAAAAGgAACAAADFSggAICAAAABgAAAAAAAAAAAAAAAAAAAAAAAAABAAIAAAACQAAFAAADAAHA4PwOAAAAAAAAAAAAAAAAAAAAAAAAAAAAAA==

> <PUBCHEM_IUPAC_OPENEYE_NAME>
4-(3,3-dimethyloxiran-2-yl)-2-(oxiran-2-yl)butan-2-ol

> <PUBCHEM_IUPAC_CAS_NAME>
4-(3,3-dimethyl-2-oxiranyl)-2-(2-oxiranyl)-2-butanol

> <PUBCHEM_IUPAC_NAME>
4-(3,3-dimethyloxiran-2-yl)-2-(oxiran-2-yl)butan-2-ol

> <PUBCHEM_IUPAC_SYSTEMATIC_NAME>
4-(3,3-dimethyloxiran-2-yl)-2-(oxiran-2-yl)butan-2-ol

> <PUBCHEM_IUPAC_TRADITIONAL_NAME>
4-(3,3-dimethyloxiran-2-yl)-2-(oxiran-2-yl)butan-2-ol

> <PUBCHEM_IUPAC_INCHI>
InChI=1S/C10H18O3/c1-9(2)7(13-9)4-5-10(3,11)8-6-12-8/h7-8,11H,4-6H2,1-3H3

> <PUBCHEM_IUPAC_INCHIKEY>
WNUGGHMAJKRDQE-UHFFFAOYSA-N

> <PUBCHEM_XLOGP3_AA>
0.5

> <PUBCHEM_EXACT_MASS>
186.126

> <PUBCHEM_MOLECULAR_FORMULA>
C10H18O3

> <PUBCHEM_MOLECULAR_WEIGHT>
186.251

> <PUBCHEM_OPENEYE_CAN_SMILES>
CC1(C(O1)CCC(C)(C2CO2)O)C

> <PUBCHEM_OPENEYE_ISO_SMILES>
CC1(C(O1)CCC(C)(C2CO2)O)C

> <PUBCHEM_CACTVS_TPSA>
45.3

> <PUBCHEM_MONOISOTOPIC_WEIGHT>
186.126

> <PUBCHEM_TOTAL_CHARGE>
0

> <PUBCHEM_HEAVY_ATOM_COUNT>
13

> <PUBCHEM_ATOM_DEF_STEREO_COUNT>
0

> <PUBCHEM_ATOM_UDEF_STEREO_COUNT>
3

> <PUBCHEM_BOND_DEF_STEREO_COUNT>
0

> <PUBCHEM_BOND_UDEF_STEREO_COUNT>
0

> <PUBCHEM_ISOTOPIC_ATOM_COUNT>
0

> <PUBCHEM_COMPONENT_COUNT>
1

> <PUBCHEM_CACTVS_TAUTO_COUNT>
-1

> <PUBCHEM_COORDINATE_TYPE>
1
5
255

> <PUBCHEM_BONDANNOTATIONS>
7  3  3
4  6  3
9  10  3

$$$$
6549
  -OEChem-02201912152D

 29 28  0     1  0  0  0  0  0999 V2000
    2.5369   -0.8660    0.0000 O   0  0  0  0  0  0  0  0  0  0  0  0
    3.4030   -0.3660    0.0000 C   0  0  3  0  0  0  0  0  0  0  0  0
    4.2690    0.1340    0.0000 C   0  0  0  0  0  0  0  0  0  0  0  0
    5.1350   -0.3660    0.0000 C   0  0  0  0  0  0  0  0  0  0  0  0
    3.9030   -1.2320    0.0000 C   0  0  0  0  0  0  0  0  0  0  0  0
    2.9030    0.5000    0.0000 C   0  0  0  0  0  0  0  0  0  0  0  0
    6.0010    0.1340    0.0000 C   0  0  0  0  0  0  0  0  0  0  0  0
    6.8671   -0.3660    0.0000 C   0  0  0  0  0  0  0  0  0  0  0  0
    7.7331    0.1340    0.0000 C   0  0  0  0  0  0  0  0  0  0  0  0
    6.8671   -1.3660    0.0000 C   0  0  0  0  0  0  0  0  0  0  0  0
    3.4030    1.3660    0.0000 C   0  0  0  0  0  0  0  0  0  0  0  0
    4.6675    0.6089    0.0000 H   0  0  0  0  0  0  0  0  0  0  0  0
    3.8705    0.6089    0.0000 H   0  0  0  0  0  0  0  0  0  0  0  0
    4.7365   -0.8410    0.0000 H   0  0  0  0  0  0  0  0  0  0  0  0
    5.5335   -0.8410    0.0000 H   0  0  0  0  0  0  0  0  0  0  0  0
    3.3660   -1.5420    0.0000 H   0  0  0  0  0  0  0  0  0  0  0  0
    4.2130   -1.7690    0.0000 H   0  0  0  0  0  0  0  0  0  0  0  0
    4.4399   -0.9221    0.0000 H   0  0  0  0  0  0  0  0  0  0  0  0
    2.2830    0.5000    0.0000 H   0  0  0  0  0  0  0  0  0  0  0  0
    6.0010    0.7540    0.0000 H   0  0  0  0  0  0  0  0  0  0  0  0
    2.0000   -0.5560    0.0000 H   0  0  0  0  0  0  0  0  0  0  0  0
    6.2471   -1.3660    0.0000 H   0  0  0  0  0  0  0  0  0  0  0  0
    6.8671   -1.9860    0.0000 H   0  0  0  0  0  0  0  0  0  0  0  0
    7.4871   -1.3660    0.0000 H   0  0  0  0  0  0  0  0  0  0  0  0
    8.0431   -0.4030    0.0000 H   0  0  0  0  0  0  0  0  0  0  0  0
    8.2700    0.4440    0.0000 H   0  0  0  0  0  0  0  0  0  0  0  0
    7.4231    0.6709    0.0000 H   0  0  0  0  0  0  0  0  0  0  0  0
    4.0230    1.3660    0.0000 H   0  0  0  0  0  0  0  0  0  0  0  0
    3.0930    1.9030    0.0000 H   0  0  0  0  0  0  0  0  0  0  0  0
  1  2  1  0  0  0  0
  1 21  1  0  0  0  0
  2  3  1  0  0  0  0
  2  5  1  0  0  0  0
  2  6  1  0  0  0  0
  3  4  1  0  0  0  0
  3 12  1  0  0  0  0
  3 13  1  0  0  0  0
  4  7  1  0  0  0  0
  4 14  1  0  0  0  0
  4 15  1  0  0  0  0
  5 16  1  0  0  0  0
  5 17  1  0  0  0  0
  5 18  1  0  0  0  0
  6 11  2  0  0  0  0
  6 19  1  0  0  0  0
  7  8  2  0  0  0  0
  7 20  1  0  0  0  0
  8  9  1  0  0  0  0
  8 10  1  0  0  0  0
  9 25  1  0  0  0  0
  9 26  1  0  0  0  0
  9 27  1  0  0  0  0
 10 22  1  0  0  0  0
 10 23  1  0  0  0  0
 10 24  1  0  0  0  0
 11 28  1  0  0  0  0
 11 29  1  0  0  0  0
M  END
> <PUBCHEM_COMPOUND_CID>
6549

> <PUBCHEM_COMPOUND_CANONICALIZED>
1

> <PUBCHEM_CACTVS_COMPLEXITY>
154

> <PUBCHEM_CACTVS_HBOND_ACCEPTOR>
1

> <PUBCHEM_CACTVS_HBOND_DONOR>
1

> <PUBCHEM_CACTVS_ROTATABLE_BOND>
4

> <PUBCHEM_CACTVS_SUBSKEYS>
AAADceBwIAAAAAAAAAAAAAAAAAAAAAAAAAAAAAAAAAAAAAAAAAAAGgAACAAADESAgAACAAAAAgCAAiBCAAAAAAAgAAAICAAAAAgABAIAAQAAQAAEgAAIEAIAAAAMAAAAAAAAAAAAAAAAAAAAAAAAAAAAAA==

> <PUBCHEM_IUPAC_OPENEYE_NAME>
3,7-dimethylocta-1,6-dien-3-ol

> <PUBCHEM_IUPAC_CAS_NAME>
3,7-dimethyl-3-octa-1,6-dienol

> <PUBCHEM_IUPAC_NAME>
3,7-dimethylocta-1,6-dien-3-ol

> <PUBCHEM_IUPAC_SYSTEMATIC_NAME>
3,7-dimethylocta-1,6-dien-3-ol

> <PUBCHEM_IUPAC_TRADITIONAL_NAME>
3,7-dimethylocta-1,6-dien-3-ol

> <PUBCHEM_IUPAC_INCHI>
InChI=1S/C10H18O/c1-5-10(4,11)8-6-7-9(2)3/h5,7,11H,1,6,8H2,2-4H3

> <PUBCHEM_IUPAC_INCHIKEY>
CDOSHBSSFJOMGT-UHFFFAOYSA-N

> <PUBCHEM_XLOGP3_AA>
2.7

> <PUBCHEM_EXACT_MASS>
154.136

> <PUBCHEM_MOLECULAR_FORMULA>
C10H18O

> <PUBCHEM_MOLECULAR_WEIGHT>
154.253

> <PUBCHEM_OPENEYE_CAN_SMILES>
CC(=CCCC(C)(C=C)O)C

> <PUBCHEM_OPENEYE_ISO_SMILES>
CC(=CCCC(C)(C=C)O)C

> <PUBCHEM_CACTVS_TPSA>
20.2

> <PUBCHEM_MONOISOTOPIC_WEIGHT>
154.136

> <PUBCHEM_TOTAL_CHARGE>
0

> <PUBCHEM_HEAVY_ATOM_COUNT>
11

> <PUBCHEM_ATOM_DEF_STEREO_COUNT>
0

> <PUBCHEM_ATOM_UDEF_STEREO_COUNT>
1

> <PUBCHEM_BOND_DEF_STEREO_COUNT>
0

> <PUBCHEM_BOND_UDEF_STEREO_COUNT>
0

> <PUBCHEM_ISOTOPIC_ATOM_COUNT>
0

> <PUBCHEM_COMPONENT_COUNT>
1

> <PUBCHEM_CACTVS_TAUTO_COUNT>
-1

> <PUBCHEM_COORDINATE_TYPE>
1
5
255

> <PUBCHEM_BONDANNOTATIONS>
2  1  3

$$$$
441245
  -OEChem-02201912152D

 27 28  0     1  0  0  0  0  0999 V2000
    6.3306    0.2500    0.0000 O   0  0  0  0  0  0  0  0  0  0  0  0
    5.4641    0.7500    0.0000 C   0  0  3  0  0  0  0  0  0  0  0  0
    5.4641   -0.2500    0.0000 C   0  0  3  0  0  0  0  0  0  0  0  0
    4.5981    1.2500    0.0000 C   0  0  0  0  0  0  0  0  0  0  0  0
    4.5981   -0.7500    0.0000 C   0  0  0  0  0  0  0  0  0  0  0  0
    3.7320   -0.2500    0.0000 C   0  0  1  0  0  0  0  0  0  0  0  0
    3.7320    0.7500    0.0000 C   0  0  0  0  0  0  0  0  0  0  0  0
    5.4641    1.7500    0.0000 C   0  0  0  0  0  0  0  0  0  0  0  0
    2.8660   -0.7500    0.0000 C   0  0  0  0  0  0  0  0  0  0  0  0
    2.0000   -0.2500    0.0000 C   0  0  0  0  0  0  0  0  0  0  0  0
    2.8660   -1.7500    0.0000 C   0  0  0  0  0  0  0  0  0  0  0  0
    5.7740   -0.7870    0.0000 H   0  0  0  0  0  0  0  0  0  0  0  0
    4.9966    1.7250    0.0000 H   0  0  0  0  0  0  0  0  0  0  0  0
    4.1996    1.7250    0.0000 H   0  0  0  0  0  0  0  0  0  0  0  0
    4.1996   -1.2250    0.0000 H   0  0  0  0  0  0  0  0  0  0  0  0
    4.9966   -1.2250    0.0000 H   0  0  0  0  0  0  0  0  0  0  0  0
    3.7320   -0.8700    0.0000 H   0  0  0  0  0  0  0  0  0  0  0  0
    3.5200    1.3326    0.0000 H   0  0  0  0  0  0  0  0  0  0  0  0
    3.1215    0.6423    0.0000 H   0  0  0  0  0  0  0  0  0  0  0  0
    6.0841    1.7500    0.0000 H   0  0  0  0  0  0  0  0  0  0  0  0
    5.4641    2.3700    0.0000 H   0  0  0  0  0  0  0  0  0  0  0  0
    4.8441    1.7500    0.0000 H   0  0  0  0  0  0  0  0  0  0  0  0
    2.3100    0.2869    0.0000 H   0  0  0  0  0  0  0  0  0  0  0  0
    1.4631    0.0600    0.0000 H   0  0  0  0  0  0  0  0  0  0  0  0
    1.6900   -0.7869    0.0000 H   0  0  0  0  0  0  0  0  0  0  0  0
    2.3291   -2.0600    0.0000 H   0  0  0  0  0  0  0  0  0  0  0  0
    3.4030   -2.0600    0.0000 H   0  0  0  0  0  0  0  0  0  0  0  0
  1  2  1  0  0  0  0
  1  3  1  0  0  0  0
  2  3  1  0  0  0  0
  2  4  1  0  0  0  0
  2  8  1  0  0  0  0
  3  5  1  0  0  0  0
  3 12  1  0  0  0  0
  4  7  1  0  0  0  0
  4 13  1  0  0  0  0
  4 14  1  0  0  0  0
  5  6  1  0  0  0  0
  5 15  1  0  0  0  0
  5 16  1  0  0  0  0
  6  7  1  0  0  0  0
  6  9  1  6  0  0  0
  6 17  1  0  0  0  0
  7 18  1  0  0  0  0
  7 19  1  0  0  0  0
  8 20  1  0  0  0  0
  8 21  1  0  0  0  0
  8 22  1  0  0  0  0
  9 10  1  0  0  0  0
  9 11  2  0  0  0  0
 10 23  1  0  0  0  0
 10 24  1  0  0  0  0
 10 25  1  0  0  0  0
 11 26  1  0  0  0  0
 11 27  1  0  0  0  0
M  END
> <PUBCHEM_COMPOUND_CID>
441245

> <PUBCHEM_COMPOUND_CANONICALIZED>
1

> <PUBCHEM_CACTVS_COMPLEXITY>
197

> <PUBCHEM_CACTVS_HBOND_ACCEPTOR>
1

> <PUBCHEM_CACTVS_HBOND_DONOR>
0

> <PUBCHEM_CACTVS_ROTATABLE_BOND>
1

> <PUBCHEM_CACTVS_SUBSKEYS>
AAADceBwIAAAAAAAAAAAAAAAEgAAAAAAAAAwAAAABIAAAAAAAAAAGgAAAAAADVSggAICAAAABACAAgBCAAAAAAAgAAAAAAAAAAgAAAIAAQACAAAEgAAAAAGAwPAOAAAAAAAAAADAAAIAABAAAAAAAAAAAA==

> <PUBCHEM_IUPAC_OPENEYE_NAME>
(4~{R})-4-isopropenyl-1-methyl-7-oxabicyclo[4.1.0]heptane

> <PUBCHEM_IUPAC_CAS_NAME>
(4~{R})-1-methyl-4-(1-methylethenyl)-7-oxabicyclo[4.1.0]heptane

> <PUBCHEM_IUPAC_NAME>
(4~{R})-1-methyl-4-prop-1-en-2-yl-7-oxabicyclo[4.1.0]heptane

> <PUBCHEM_IUPAC_SYSTEMATIC_NAME>
(4~{R})-1-methyl-4-prop-1-en-2-yl-7-oxabicyclo[4.1.0]heptane

> <PUBCHEM_IUPAC_TRADITIONAL_NAME>
(4~{R})-4-isopropenyl-1-methyl-7-oxabicyclo[4.1.0]heptane

> <PUBCHEM_IUPAC_INCHI>
InChI=1S/C10H16O/c1-7(2)8-4-5-10(3)9(6-8)11-10/h8-9H,1,4-6H2,2-3H3/t8-,9?,10?/m1/s1

> <PUBCHEM_IUPAC_INCHIKEY>
CCEFMUBVSUDRLG-XNWIYYODSA-N

> <PUBCHEM_XLOGP3_AA>
2.5

> <PUBCHEM_EXACT_MASS>
152.12

> <PUBCHEM_MOLECULAR_FORMULA>
C10H16O

> <PUBCHEM_MOLECULAR_WEIGHT>
152.237

> <PUBCHEM_OPENEYE_CAN_SMILES>
CC(=C)C1CCC2(C(C1)O2)C

> <PUBCHEM_OPENEYE_ISO_SMILES>
CC(=C)[C@@H]1CCC2(C(C1)O2)C

> <PUBCHEM_CACTVS_TPSA>
12.5

> <PUBCHEM_MONOISOTOPIC_WEIGHT>
152.12

> <PUBCHEM_TOTAL_CHARGE>
0

> <PUBCHEM_HEAVY_ATOM_COUNT>
11

> <PUBCHEM_ATOM_DEF_STEREO_COUNT>
1

> <PUBCHEM_ATOM_UDEF_STEREO_COUNT>
2

> <PUBCHEM_BOND_DEF_STEREO_COUNT>
0

> <PUBCHEM_BOND_UDEF_STEREO_COUNT>
0

> <PUBCHEM_ISOTOPIC_ATOM_COUNT>
0

> <PUBCHEM_COMPONENT_COUNT>
1

> <PUBCHEM_CACTVS_TAUTO_COUNT>
-1

> <PUBCHEM_COORDINATE_TYPE>
1
5
255

> <PUBCHEM_BONDANNOTATIONS>
2  8  3
3  5  3
6  9  6

$$$$
527424
  -OEChem-02201912152D

 24 24  0     1  0  0  0  0  0999 V2000
    2.8660    0.7500    0.0000 C   0  0  3  0  0  0  0  0  0  0  0  0
    2.0000    0.2500    0.0000 C   0  0  0  0  0  0  0  0  0  0  0  0
    3.7320    0.2500    0.0000 C   0  0  0  0  0  0  0  0  0  0  0  0
    2.8660    1.7500    0.0000 C   0  0  0  0  0  0  0  0  0  0  0  0
    2.0000   -0.7500    0.0000 C   0  0  0  0  0  0  0  0  0  0  0  0
    2.8660   -1.2500    0.0000 C   0  0  0  0  0  0  0  0  0  0  0  0
    3.7320   -0.7500    0.0000 C   0  0  0  0  0  0  0  0  0  0  0  0
    3.7320    2.2500    0.0000 C   0  0  0  0  0  0  0  0  0  0  0  0
    2.8660   -2.2500    0.0000 C   0  0  0  0  0  0  0  0  0  0  0  0
    2.0000    2.2500    0.0000 C   0  0  0  0  0  0  0  0  0  0  0  0
    3.6022    1.1750    0.0000 H   0  0  0  0  0  0  0  0  0  0  0  0
    1.7880    0.8326    0.0000 H   0  0  0  0  0  0  0  0  0  0  0  0
    1.3894    0.1423    0.0000 H   0  0  0  0  0  0  0  0  0  0  0  0
    4.2690    0.5600    0.0000 H   0  0  0  0  0  0  0  0  0  0  0  0
    1.4631   -1.0600    0.0000 H   0  0  0  0  0  0  0  0  0  0  0  0
    4.2690   -1.0600    0.0000 H   0  0  0  0  0  0  0  0  0  0  0  0
    4.0420    1.7131    0.0000 H   0  0  0  0  0  0  0  0  0  0  0  0
    4.2690    2.5600    0.0000 H   0  0  0  0  0  0  0  0  0  0  0  0
    3.4220    2.7869    0.0000 H   0  0  0  0  0  0  0  0  0  0  0  0
    2.2460   -2.2500    0.0000 H   0  0  0  0  0  0  0  0  0  0  0  0
    2.8660   -2.8700    0.0000 H   0  0  0  0  0  0  0  0  0  0  0  0
    3.4860   -2.2500    0.0000 H   0  0  0  0  0  0  0  0  0  0  0  0
    2.0000    2.8700    0.0000 H   0  0  0  0  0  0  0  0  0  0  0  0
    1.4631    1.9400    0.0000 H   0  0  0  0  0  0  0  0  0  0  0  0
  1  2  1  0  0  0  0
  1  3  1  0  0  0  0
  1  4  1  0  0  0  0
  1 11  1  0  0  0  0
  2  5  1  0  0  0  0
  2 12  1  0  0  0  0
  2 13  1  0  0  0  0
  3  7  2  0  0  0  0
  3 14  1  0  0  0  0
  4  8  1  0  0  0  0
  4 10  2  0  0  0  0
  5  6  2  0  0  0  0
  5 15  1  0  0  0  0
  6  7  1  0  0  0  0
  6  9  1  0  0  0  0
  7 16  1  0  0  0  0
  8 17  1  0  0  0  0
  8 18  1  0  0  0  0
  8 19  1  0  0  0  0
  9 20  1  0  0  0  0
  9 21  1  0  0  0  0
  9 22  1  0  0  0  0
 10 23  1  0  0  0  0
 10 24  1  0  0  0  0
M  END
> <PUBCHEM_COMPOUND_CID>
527424

> <PUBCHEM_COMPOUND_CANONICALIZED>
1

> <PUBCHEM_CACTVS_COMPLEXITY>
194

> <PUBCHEM_CACTVS_HBOND_ACCEPTOR>
0

> <PUBCHEM_CACTVS_HBOND_DONOR>
0

> <PUBCHEM_CACTVS_ROTATABLE_BOND>
1

> <PUBCHEM_CACTVS_SUBSKEYS>
AAADccBwAAAAAAAAAAAAAAAAAAAAAAAAAAAgAAAAAAAAAAAAAAAAGAAAAAAADQCAAAACAAAAAACAAiBCAAAAAAAgAAAICAAAAAgIAAIAAQAAAAAAgAAIgAIAAAAKAAAAAAAAAAAAAAAAAAAAAAAAAAAAAA==

> <PUBCHEM_IUPAC_OPENEYE_NAME>
5-isopropenyl-2-methyl-cyclohexa-1,3-diene

> <PUBCHEM_IUPAC_CAS_NAME>
2-methyl-5-(1-methylethenyl)cyclohexa-1,3-diene

> <PUBCHEM_IUPAC_NAME>
2-methyl-5-prop-1-en-2-ylcyclohexa-1,3-diene

> <PUBCHEM_IUPAC_SYSTEMATIC_NAME>
2-methyl-5-prop-1-en-2-yl-cyclohexa-1,3-diene

> <PUBCHEM_IUPAC_TRADITIONAL_NAME>
5-isopropenyl-2-methyl-cyclohexa-1,3-diene

> <PUBCHEM_IUPAC_INCHI>
InChI=1S/C10H14/c1-8(2)10-6-4-9(3)5-7-10/h4-6,10H,1,7H2,2-3H3

> <PUBCHEM_IUPAC_INCHIKEY>
NJLNIOKPXKKALD-UHFFFAOYSA-N

> <PUBCHEM_XLOGP3_AA>
3.3

> <PUBCHEM_EXACT_MASS>
134.11

> <PUBCHEM_MOLECULAR_FORMULA>
C10H14

> <PUBCHEM_MOLECULAR_WEIGHT>
134.222

> <PUBCHEM_OPENEYE_CAN_SMILES>
CC1=CCC(C=C1)C(=C)C

> <PUBCHEM_OPENEYE_ISO_SMILES>
CC1=CCC(C=C1)C(=C)C

> <PUBCHEM_CACTVS_TPSA>
0

> <PUBCHEM_MONOISOTOPIC_WEIGHT>
134.11

> <PUBCHEM_TOTAL_CHARGE>
0

> <PUBCHEM_HEAVY_ATOM_COUNT>
10

> <PUBCHEM_ATOM_DEF_STEREO_COUNT>
0

> <PUBCHEM_ATOM_UDEF_STEREO_COUNT>
1

> <PUBCHEM_BOND_DEF_STEREO_COUNT>
0

> <PUBCHEM_BOND_UDEF_STEREO_COUNT>
0

> <PUBCHEM_ISOTOPIC_ATOM_COUNT>
0

> <PUBCHEM_COMPONENT_COUNT>
1

> <PUBCHEM_CACTVS_TAUTO_COUNT>
-1

> <PUBCHEM_COORDINATE_TYPE>
1
5
255

> <PUBCHEM_BONDANNOTATIONS>
1  11  3

$$$$
5320250
  -OEChem-02201912152D

 26 25  0     0  0  0  0  0  0999 V2000
    4.5981    0.1900    0.0000 C   0  0  0  0  0  0  0  0  0  0  0  0
    6.3301    0.1900    0.0000 C   0  0  0  0  0  0  0  0  0  0  0  0
    5.4641    0.6900    0.0000 C   0  0  0  0  0  0  0  0  0  0  0  0
    3.7320    0.6900    0.0000 C   0  0  0  0  0  0  0  0  0  0  0  0
    2.8660    0.1900    0.0000 C   0  0  0  0  0  0  0  0  0  0  0  0
    7.1962    0.6900    0.0000 C   0  0  0  0  0  0  0  0  0  0  0  0
    6.3301   -0.8100    0.0000 C   0  0  0  0  0  0  0  0  0  0  0  0
    2.0000    0.6900    0.0000 C   0  0  0  0  0  0  0  0  0  0  0  0
    2.8660   -0.8100    0.0000 C   0  0  0  0  0  0  0  0  0  0  0  0
    2.0000   -1.3100    0.0000 C   0  0  0  0  0  0  0  0  0  0  0  0
    4.1996   -0.2849    0.0000 H   0  0  0  0  0  0  0  0  0  0  0  0
    4.9966   -0.2849    0.0000 H   0  0  0  0  0  0  0  0  0  0  0  0
    5.4641    1.3100    0.0000 H   0  0  0  0  0  0  0  0  0  0  0  0
    3.7320    1.3100    0.0000 H   0  0  0  0  0  0  0  0  0  0  0  0
    5.7101   -0.8100    0.0000 H   0  0  0  0  0  0  0  0  0  0  0  0
    6.3301   -1.4300    0.0000 H   0  0  0  0  0  0  0  0  0  0  0  0
    7.5062    0.1531    0.0000 H   0  0  0  0  0  0  0  0  0  0  0  0
    7.7331    1.0000    0.0000 H   0  0  0  0  0  0  0  0  0  0  0  0
    6.8862    1.2269    0.0000 H   0  0  0  0  0  0  0  0  0  0  0  0
    6.9501   -0.8100    0.0000 H   0  0  0  0  0  0  0  0  0  0  0  0
    2.3100    1.2269    0.0000 H   0  0  0  0  0  0  0  0  0  0  0  0
    1.4631    1.0000    0.0000 H   0  0  0  0  0  0  0  0  0  0  0  0
    1.6900    0.1531    0.0000 H   0  0  0  0  0  0  0  0  0  0  0  0
    3.4030   -1.1200    0.0000 H   0  0  0  0  0  0  0  0  0  0  0  0
    1.4631   -1.0000    0.0000 H   0  0  0  0  0  0  0  0  0  0  0  0
    2.0000   -1.9300    0.0000 H   0  0  0  0  0  0  0  0  0  0  0  0
  1  3  1  0  0  0  0
  1  4  1  0  0  0  0
  1 11  1  0  0  0  0
  1 12  1  0  0  0  0
  2  3  2  0  0  0  0
  2  6  1  0  0  0  0
  2  7  1  0  0  0  0
  3 13  1  0  0  0  0
  4  5  2  0  0  0  0
  4 14  1  0  0  0  0
  5  8  1  0  0  0  0
  5  9  1  0  0  0  0
  6 17  1  0  0  0  0
  6 18  1  0  0  0  0
  6 19  1  0  0  0  0
  7 15  1  0  0  0  0
  7 16  1  0  0  0  0
  7 20  1  0  0  0  0
  8 21  1  0  0  0  0
  8 22  1  0  0  0  0
  8 23  1  0  0  0  0
  9 10  2  0  0  0  0
  9 24  1  0  0  0  0
 10 25  1  0  0  0  0
 10 26  1  0  0  0  0
M  END
> <PUBCHEM_COMPOUND_CID>
5320250

> <PUBCHEM_COMPOUND_CANONICALIZED>
1

> <PUBCHEM_CACTVS_COMPLEXITY>
155

> <PUBCHEM_CACTVS_HBOND_ACCEPTOR>
0

> <PUBCHEM_CACTVS_HBOND_DONOR>
0

> <PUBCHEM_CACTVS_ROTATABLE_BOND>
3

> <PUBCHEM_CACTVS_SUBSKEYS>
AAADceBwAAAAAAAAAAAAAAAAAAAAAAAAAAAAAAAAAAAAAAAAAAAAGAAAAAAADACAAAACAAAAAACAAiBCAAAAAAAgAAAICAAAAAgIAAAAAQAAAAAAAAAIgAIAAAAAAAAAAAAAAAAAAAAAAAAAAAAAAAAAAA==

> <PUBCHEM_IUPAC_OPENEYE_NAME>
(3~{Z})-3,7-dimethylocta-1,3,6-triene

> <PUBCHEM_IUPAC_CAS_NAME>
(3~{Z})-3,7-dimethylocta-1,3,6-triene

> <PUBCHEM_IUPAC_NAME>
(3~{Z})-3,7-dimethylocta-1,3,6-triene

> <PUBCHEM_IUPAC_SYSTEMATIC_NAME>
(3~{Z})-3,7-dimethylocta-1,3,6-triene

> <PUBCHEM_IUPAC_TRADITIONAL_NAME>
(3~{Z})-3,7-dimethylocta-1,3,6-triene

> <PUBCHEM_IUPAC_INCHI>
InChI=1S/C10H16/c1-5-10(4)8-6-7-9(2)3/h5,7-8H,1,6H2,2-4H3/b10-8-

> <PUBCHEM_IUPAC_INCHIKEY>
IHPKGUQCSIINRJ-NTMALXAHSA-N

> <PUBCHEM_XLOGP3_AA>
4.3

> <PUBCHEM_EXACT_MASS>
136.125

> <PUBCHEM_MOLECULAR_FORMULA>
C10H16

> <PUBCHEM_MOLECULAR_WEIGHT>
136.238

> <PUBCHEM_OPENEYE_CAN_SMILES>
CC(=CCC=C(C)C=C)C

> <PUBCHEM_OPENEYE_ISO_SMILES>
CC(=CC/C=C(/C)\C=C)C

> <PUBCHEM_CACTVS_TPSA>
0

> <PUBCHEM_MONOISOTOPIC_WEIGHT>
136.125

> <PUBCHEM_TOTAL_CHARGE>
0

> <PUBCHEM_HEAVY_ATOM_COUNT>
10

> <PUBCHEM_ATOM_DEF_STEREO_COUNT>
0

> <PUBCHEM_ATOM_UDEF_STEREO_COUNT>
0

> <PUBCHEM_BOND_DEF_STEREO_COUNT>
1

> <PUBCHEM_BOND_UDEF_STEREO_COUNT>
0

> <PUBCHEM_ISOTOPIC_ATOM_COUNT>
0

> <PUBCHEM_COMPONENT_COUNT>
1

> <PUBCHEM_CACTVS_TAUTO_COUNT>
-1

> <PUBCHEM_COORDINATE_TYPE>
1
5
255

$$$$
5281553
  -OEChem-02201912152D

 26 25  0     0  0  0  0  0  0999 V2000
    5.4641   -0.0600    0.0000 C   0  0  0  0  0  0  0  0  0  0  0  0
    7.1962   -0.0600    0.0000 C   0  0  0  0  0  0  0  0  0  0  0  0
    6.3301    0.4400    0.0000 C   0  0  0  0  0  0  0  0  0  0  0  0
    4.5981    0.4400    0.0000 C   0  0  0  0  0  0  0  0  0  0  0  0
    3.7320   -0.0600    0.0000 C   0  0  0  0  0  0  0  0  0  0  0  0
    8.0622    0.4400    0.0000 C   0  0  0  0  0  0  0  0  0  0  0  0
    7.1962   -1.0600    0.0000 C   0  0  0  0  0  0  0  0  0  0  0  0
    3.7320   -1.0600    0.0000 C   0  0  0  0  0  0  0  0  0  0  0  0
    2.8660    0.4400    0.0000 C   0  0  0  0  0  0  0  0  0  0  0  0
    2.0000   -0.0600    0.0000 C   0  0  0  0  0  0  0  0  0  0  0  0
    5.0656   -0.5349    0.0000 H   0  0  0  0  0  0  0  0  0  0  0  0
    5.8626   -0.5349    0.0000 H   0  0  0  0  0  0  0  0  0  0  0  0
    6.3301    1.0600    0.0000 H   0  0  0  0  0  0  0  0  0  0  0  0
    4.5981    1.0600    0.0000 H   0  0  0  0  0  0  0  0  0  0  0  0
    6.5762   -1.0600    0.0000 H   0  0  0  0  0  0  0  0  0  0  0  0
    7.1962   -1.6800    0.0000 H   0  0  0  0  0  0  0  0  0  0  0  0
    8.3722   -0.0969    0.0000 H   0  0  0  0  0  0  0  0  0  0  0  0
    8.5991    0.7500    0.0000 H   0  0  0  0  0  0  0  0  0  0  0  0
    7.7522    0.9769    0.0000 H   0  0  0  0  0  0  0  0  0  0  0  0
    7.8162   -1.0600    0.0000 H   0  0  0  0  0  0  0  0  0  0  0  0
    3.1120   -1.0600    0.0000 H   0  0  0  0  0  0  0  0  0  0  0  0
    3.7320   -1.6800    0.0000 H   0  0  0  0  0  0  0  0  0  0  0  0
    4.3520   -1.0600    0.0000 H   0  0  0  0  0  0  0  0  0  0  0  0
    2.8660    1.0600    0.0000 H   0  0  0  0  0  0  0  0  0  0  0  0
    1.4631    0.2500    0.0000 H   0  0  0  0  0  0  0  0  0  0  0  0
    2.0000   -0.6800    0.0000 H   0  0  0  0  0  0  0  0  0  0  0  0
  1  3  1  0  0  0  0
  1  4  1  0  0  0  0
  1 11  1  0  0  0  0
  1 12  1  0  0  0  0
  2  3  2  0  0  0  0
  2  6  1  0  0  0  0
  2  7  1  0  0  0  0
  3 13  1  0  0  0  0
  4  5  2  0  0  0  0
  4 14  1  0  0  0  0
  5  8  1  0  0  0  0
  5  9  1  0  0  0  0
  6 17  1  0  0  0  0
  6 18  1  0  0  0  0
  6 19  1  0  0  0  0
  7 15  1  0  0  0  0
  7 16  1  0  0  0  0
  7 20  1  0  0  0  0
  8 21  1  0  0  0  0
  8 22  1  0  0  0  0
  8 23  1  0  0  0  0
  9 10  2  0  0  0  0
  9 24  1  0  0  0  0
 10 25  1  0  0  0  0
 10 26  1  0  0  0  0
M  END
> <PUBCHEM_COMPOUND_CID>
5281553

> <PUBCHEM_COMPOUND_CANONICALIZED>
1

> <PUBCHEM_CACTVS_COMPLEXITY>
155

> <PUBCHEM_CACTVS_HBOND_ACCEPTOR>
0

> <PUBCHEM_CACTVS_HBOND_DONOR>
0

> <PUBCHEM_CACTVS_ROTATABLE_BOND>
3

> <PUBCHEM_CACTVS_SUBSKEYS>
AAADceBwAAAAAAAAAAAAAAAAAAAAAAAAAAAAAAAAAAAAAAAAAAAAGAAAAAAADACAAAACAAAAAACAAiBCAAAAAAAgAAAICAAAAAgIAAAAAQAAAAAAAAAIgAIAAAAAAAAAAAAAAAAAAAAAAAAAAAAAAAAAAA==

> <PUBCHEM_IUPAC_OPENEYE_NAME>
(3~{E})-3,7-dimethylocta-1,3,6-triene

> <PUBCHEM_IUPAC_CAS_NAME>
(3~{E})-3,7-dimethylocta-1,3,6-triene

> <PUBCHEM_IUPAC_NAME>
(3~{E})-3,7-dimethylocta-1,3,6-triene

> <PUBCHEM_IUPAC_SYSTEMATIC_NAME>
(3~{E})-3,7-dimethylocta-1,3,6-triene

> <PUBCHEM_IUPAC_TRADITIONAL_NAME>
(3~{E})-3,7-dimethylocta-1,3,6-triene

> <PUBCHEM_IUPAC_INCHI>
InChI=1S/C10H16/c1-5-10(4)8-6-7-9(2)3/h5,7-8H,1,6H2,2-4H3/b10-8+

> <PUBCHEM_IUPAC_INCHIKEY>
IHPKGUQCSIINRJ-CSKARUKUSA-N

> <PUBCHEM_XLOGP3_AA>
4.3

> <PUBCHEM_EXACT_MASS>
136.125

> <PUBCHEM_MOLECULAR_FORMULA>
C10H16

> <PUBCHEM_MOLECULAR_WEIGHT>
136.238

> <PUBCHEM_OPENEYE_CAN_SMILES>
CC(=CCC=C(C)C=C)C

> <PUBCHEM_OPENEYE_ISO_SMILES>
CC(=CC/C=C(\C)/C=C)C

> <PUBCHEM_CACTVS_TPSA>
0

> <PUBCHEM_MONOISOTOPIC_WEIGHT>
136.125

> <PUBCHEM_TOTAL_CHARGE>
0

> <PUBCHEM_HEAVY_ATOM_COUNT>
10

> <PUBCHEM_ATOM_DEF_STEREO_COUNT>
0

> <PUBCHEM_ATOM_UDEF_STEREO_COUNT>
0

> <PUBCHEM_BOND_DEF_STEREO_COUNT>
1

> <PUBCHEM_BOND_UDEF_STEREO_COUNT>
0

> <PUBCHEM_ISOTOPIC_ATOM_COUNT>
0

> <PUBCHEM_COMPONENT_COUNT>
1

> <PUBCHEM_CACTVS_TAUTO_COUNT>
-1

> <PUBCHEM_COORDINATE_TYPE>
1
5
255

$$$$
7463_2
  -OEChem-02201912152D

 24 24  0     0  0  0  0  0  0999 V2000
    2.8660    1.7500    0.0000 C   0  0  0  0  0  0  0  0  0  0  0  0
    2.8660    0.7500    0.0000 C   0  0  0  0  0  0  0  0  0  0  0  0
    3.7320    2.2500    0.0000 C   0  0  0  0  0  0  0  0  0  0  0  0
    2.0000    2.2500    0.0000 C   0  0  0  0  0  0  0  0  0  0  0  0
    2.0000    0.2500    0.0000 C   0  0  0  0  0  0  0  0  0  0  0  0
    3.7320    0.2500    0.0000 C   0  0  0  0  0  0  0  0  0  0  0  0
    2.8660   -1.2500    0.0000 C   0  0  0  0  0  0  0  0  0  0  0  0
    2.0000   -0.7500    0.0000 C   0  0  0  0  0  0  0  0  0  0  0  0
    3.7320   -0.7500    0.0000 C   0  0  0  0  0  0  0  0  0  0  0  0
    2.8660   -2.2500    0.0000 C   0  0  0  0  0  0  0  0  0  0  0  0
    2.8660    2.3700    0.0000 H   0  0  0  0  0  0  0  0  0  0  0  0
    4.0420    1.7131    0.0000 H   0  0  0  0  0  0  0  0  0  0  0  0
    4.2690    2.5600    0.0000 H   0  0  0  0  0  0  0  0  0  0  0  0
    3.4220    2.7869    0.0000 H   0  0  0  0  0  0  0  0  0  0  0  0
    2.3100    2.7869    0.0000 H   0  0  0  0  0  0  0  0  0  0  0  0
    1.4631    2.5600    0.0000 H   0  0  0  0  0  0  0  0  0  0  0  0
    1.6900    1.7131    0.0000 H   0  0  0  0  0  0  0  0  0  0  0  0
    1.4631    0.5600    0.0000 H   0  0  0  0  0  0  0  0  0  0  0  0
    4.2690    0.5600    0.0000 H   0  0  0  0  0  0  0  0  0  0  0  0
    1.4631   -1.0600    0.0000 H   0  0  0  0  0  0  0  0  0  0  0  0
    4.2690   -1.0600    0.0000 H   0  0  0  0  0  0  0  0  0  0  0  0
    2.2460   -2.2500    0.0000 H   0  0  0  0  0  0  0  0  0  0  0  0
    2.8660   -2.8700    0.0000 H   0  0  0  0  0  0  0  0  0  0  0  0
    3.4860   -2.2500    0.0000 H   0  0  0  0  0  0  0  0  0  0  0  0
  1  2  1  0  0  0  0
  1  3  1  0  0  0  0
  1  4  1  0  0  0  0
  1 11  1  0  0  0  0
  2  5  2  0  0  0  0
  2  6  1  0  0  0  0
  3 12  1  0  0  0  0
  3 13  1  0  0  0  0
  3 14  1  0  0  0  0
  4 15  1  0  0  0  0
  4 16  1  0  0  0  0
  4 17  1  0  0  0  0
  5  8  1  0  0  0  0
  5 18  1  0  0  0  0
  6  9  2  0  0  0  0
  6 19  1  0  0  0  0
  7  8  2  0  0  0  0
  7  9  1  0  0  0  0
  7 10  1  0  0  0  0
  8 20  1  0  0  0  0
  9 21  1  0  0  0  0
 10 22  1  0  0  0  0
 10 23  1  0  0  0  0
 10 24  1  0  0  0  0
M  END
> <PUBCHEM_COMPOUND_CID>
7463

> <PUBCHEM_COMPOUND_CANONICALIZED>
1

> <PUBCHEM_CACTVS_COMPLEXITY>
86.2

> <PUBCHEM_CACTVS_HBOND_ACCEPTOR>
0

> <PUBCHEM_CACTVS_HBOND_DONOR>
0

> <PUBCHEM_CACTVS_ROTATABLE_BOND>
1

> <PUBCHEM_CACTVS_SUBSKEYS>
AAADccBwAAAAAAAAAAAAAAAAAAAAAAAAAAAwAAAAAAAAAAABAAAAGAAAAAAADQCAGAAyAIAAAACAAiBCAAACAAAgAAAIiAAAAIgIICKAERCAIAAggAAIiAcAgMAOwAAAAAAAAACAAAAAAAAAAAAAAAAAAA==

> <PUBCHEM_IUPAC_OPENEYE_NAME>
1-isopropyl-4-methyl-benzene

> <PUBCHEM_IUPAC_CAS_NAME>
1-methyl-4-propan-2-ylbenzene

> <PUBCHEM_IUPAC_NAME>
1-methyl-4-propan-2-ylbenzene

> <PUBCHEM_IUPAC_SYSTEMATIC_NAME>
1-methyl-4-propan-2-yl-benzene

> <PUBCHEM_IUPAC_TRADITIONAL_NAME>
p-cymene

> <PUBCHEM_IUPAC_INCHI>
InChI=1S/C10H14/c1-8(2)10-6-4-9(3)5-7-10/h4-8H,1-3H3

> <PUBCHEM_IUPAC_INCHIKEY>
HFPZCAJZSCWRBC-UHFFFAOYSA-N

> <PUBCHEM_XLOGP3>
4.1

> <PUBCHEM_EXACT_MASS>
134.11

> <PUBCHEM_MOLECULAR_FORMULA>
C10H14

> <PUBCHEM_MOLECULAR_WEIGHT>
134.222

> <PUBCHEM_OPENEYE_CAN_SMILES>
CC1=CC=C(C=C1)C(C)C

> <PUBCHEM_OPENEYE_ISO_SMILES>
CC1=CC=C(C=C1)C(C)C

> <PUBCHEM_CACTVS_TPSA>
0

> <PUBCHEM_MONOISOTOPIC_WEIGHT>
134.11

> <PUBCHEM_TOTAL_CHARGE>
0

> <PUBCHEM_HEAVY_ATOM_COUNT>
10

> <PUBCHEM_ATOM_DEF_STEREO_COUNT>
0

> <PUBCHEM_ATOM_UDEF_STEREO_COUNT>
0

> <PUBCHEM_BOND_DEF_STEREO_COUNT>
0

> <PUBCHEM_BOND_UDEF_STEREO_COUNT>
0

> <PUBCHEM_ISOTOPIC_ATOM_COUNT>
0

> <PUBCHEM_COMPONENT_COUNT>
1

> <PUBCHEM_CACTVS_TAUTO_COUNT>
-1

> <PUBCHEM_COORDINATE_TYPE>
1
5
255

> <PUBCHEM_BONDANNOTATIONS>
2  5  8
2  6  8
5  8  8
6  9  8
7  8  8
7  9  8

$$$$
121719
  -OEChem-02201912152D

 25 26  0     1  0  0  0  0  0999 V2000
    2.0000   -0.6902    0.0000 O   0  0  0  0  0  0  0  0  0  0  0  0
    6.3887   -0.0329    0.0000 C   0  0  0  0  0  0  0  0  0  0  0  0
    5.2486    0.9242    0.0000 C   0  0  3  0  0  0  0  0  0  0  0  0
    4.9898   -0.0417    0.0000 C   0  0  3  0  0  0  0  0  0  0  0  0
    4.5120    1.9068    0.0000 C   0  0  0  0  0  0  0  0  0  0  0  0
    3.2153    0.6130    0.0000 C   0  0  0  0  0  0  0  0  0  0  0  0
    3.7687   -0.9074    0.0000 C   0  0  0  0  0  0  0  0  0  0  0  0
    6.8887   -0.8990    0.0000 C   0  0  0  0  0  0  0  0  0  0  0  0
    7.2547    0.4671    0.0000 C   0  0  0  0  0  0  0  0  0  0  0  0
    2.9397   -0.3482    0.0000 C   0  0  0  0  0  0  0  0  0  0  0  0
    3.8036   -1.9068    0.0000 C   0  0  0  0  0  0  0  0  0  0  0  0
    5.6989    1.3504    0.0000 H   0  0  0  0  0  0  0  0  0  0  0  0
    5.1798   -0.6319    0.0000 H   0  0  0  0  0  0  0  0  0  0  0  0
    4.8298    2.4392    0.0000 H   0  0  0  0  0  0  0  0  0  0  0  0
    3.8988    1.9988    0.0000 H   0  0  0  0  0  0  0  0  0  0  0  0
    3.2103    1.2330    0.0000 H   0  0  0  0  0  0  0  0  0  0  0  0
    2.6010    0.6968    0.0000 H   0  0  0  0  0  0  0  0  0  0  0  0
    6.3518   -1.2090    0.0000 H   0  0  0  0  0  0  0  0  0  0  0  0
    7.1987   -1.4359    0.0000 H   0  0  0  0  0  0  0  0  0  0  0  0
    7.4256   -0.5890    0.0000 H   0  0  0  0  0  0  0  0  0  0  0  0
    7.5647   -0.0699    0.0000 H   0  0  0  0  0  0  0  0  0  0  0  0
    7.7916    0.7771    0.0000 H   0  0  0  0  0  0  0  0  0  0  0  0
    6.9447    1.0040    0.0000 H   0  0  0  0  0  0  0  0  0  0  0  0
    3.2778   -2.2354    0.0000 H   0  0  0  0  0  0  0  0  0  0  0  0
    4.3511   -2.1979    0.0000 H   0  0  0  0  0  0  0  0  0  0  0  0
  1 10  2  0  0  0  0
  2  3  1  0  0  0  0
  2  4  1  0  0  0  0
  2  8  1  0  0  0  0
  2  9  1  0  0  0  0
  3  5  1  0  0  0  0
  3  6  1  0  0  0  0
  3 12  1  0  0  0  0
  4  5  1  0  0  0  0
  4  7  1  0  0  0  0
  4 13  1  0  0  0  0
  5 14  1  0  0  0  0
  5 15  1  0  0  0  0
  6 10  1  0  0  0  0
  6 16  1  0  0  0  0
  6 17  1  0  0  0  0
  7 10  1  0  0  0  0
  7 11  2  0  0  0  0
  8 18  1  0  0  0  0
  8 19  1  0  0  0  0
  8 20  1  0  0  0  0
  9 21  1  0  0  0  0
  9 22  1  0  0  0  0
  9 23  1  0  0  0  0
 11 24  1  0  0  0  0
 11 25  1  0  0  0  0
M  END
> <PUBCHEM_COMPOUND_CID>
121719

> <PUBCHEM_COMPOUND_CANONICALIZED>
1

> <PUBCHEM_CACTVS_COMPLEXITY>
237

> <PUBCHEM_CACTVS_HBOND_ACCEPTOR>
1

> <PUBCHEM_CACTVS_HBOND_DONOR>
0

> <PUBCHEM_CACTVS_ROTATABLE_BOND>
0

> <PUBCHEM_CACTVS_SUBSKEYS>
AAADccBwIAAAAAAAAAAAAAAAAABgAAAAAAAwYAAAAAAAAAAAAAAAGgAAAAAADwSAgAACAAAAAACIAoBSAAAAAAAgAAAAAAEAAEgAABIAAQAAAAAAgAAAAIEIiMCPgAAAAAAAAAAAAAAAACAAAAAAAAAAAA==

> <PUBCHEM_IUPAC_OPENEYE_NAME>
6,6-dimethyl-2-methylene-norpinan-3-one

> <PUBCHEM_IUPAC_CAS_NAME>
6,6-dimethyl-2-methylene-3-bicyclo[3.1.1]heptanone

> <PUBCHEM_IUPAC_NAME>
6,6-dimethyl-2-methylidenebicyclo[3.1.1]heptan-3-one

> <PUBCHEM_IUPAC_SYSTEMATIC_NAME>
6,6-dimethyl-2-methylidene-bicyclo[3.1.1]heptan-3-one

> <PUBCHEM_IUPAC_TRADITIONAL_NAME>
6,6-dimethyl-2-methylene-norpinan-3-one

> <PUBCHEM_IUPAC_INCHI>
InChI=1S/C10H14O/c1-6-8-4-7(5-9(6)11)10(8,2)3/h7-8H,1,4-5H2,2-3H3

> <PUBCHEM_IUPAC_INCHIKEY>
TZDMGBLPGZXHJI-UHFFFAOYSA-N

> <PUBCHEM_XLOGP3_AA>
2.2

> <PUBCHEM_EXACT_MASS>
150.104

> <PUBCHEM_MOLECULAR_FORMULA>
C10H14O

> <PUBCHEM_MOLECULAR_WEIGHT>
150.221

> <PUBCHEM_OPENEYE_CAN_SMILES>
CC1(C2CC1C(=C)C(=O)C2)C

> <PUBCHEM_OPENEYE_ISO_SMILES>
CC1(C2CC1C(=C)C(=O)C2)C

> <PUBCHEM_CACTVS_TPSA>
17.1

> <PUBCHEM_MONOISOTOPIC_WEIGHT>
150.104

> <PUBCHEM_TOTAL_CHARGE>
0

> <PUBCHEM_HEAVY_ATOM_COUNT>
11

> <PUBCHEM_ATOM_DEF_STEREO_COUNT>
0

> <PUBCHEM_ATOM_UDEF_STEREO_COUNT>
2

> <PUBCHEM_BOND_DEF_STEREO_COUNT>
0

> <PUBCHEM_BOND_UDEF_STEREO_COUNT>
0

> <PUBCHEM_ISOTOPIC_ATOM_COUNT>
0

> <PUBCHEM_COMPONENT_COUNT>
1

> <PUBCHEM_CACTVS_TAUTO_COUNT>
-1

> <PUBCHEM_COORDINATE_TYPE>
1
5
255

> <PUBCHEM_BONDANNOTATIONS>
3  2  3
4  2  3

$$$$
10282
  -OEChem-02201912152D

 29 29  0     1  0  0  0  0  0999 V2000
    2.5369    0.7500    0.0000 O   0  0  0  0  0  0  0  0  0  0  0  0
    4.2690    0.7500    0.0000 C   0  0  3  0  0  0  0  0  0  0  0  0
    5.1350    0.2500    0.0000 C   0  0  0  0  0  0  0  0  0  0  0  0
    4.2690    1.7500    0.0000 C   0  0  0  0  0  0  0  0  0  0  0  0
    3.4030    0.2500    0.0000 C   0  0  3  0  0  0  0  0  0  0  0  0
    5.1350   -0.7500    0.0000 C   0  0  0  0  0  0  0  0  0  0  0  0
    4.2690   -1.2500    0.0000 C   0  0  0  0  0  0  0  0  0  0  0  0
    3.4030   -0.7500    0.0000 C   0  0  0  0  0  0  0  0  0  0  0  0
    5.1350    2.2500    0.0000 C   0  0  0  0  0  0  0  0  0  0  0  0
    3.4030    2.2500    0.0000 C   0  0  0  0  0  0  0  0  0  0  0  0
    4.2690   -2.2500    0.0000 C   0  0  0  0  0  0  0  0  0  0  0  0
    5.0051    1.1750    0.0000 H   0  0  0  0  0  0  0  0  0  0  0  0
    4.2690    2.3700    0.0000 H   0  0  0  0  0  0  0  0  0  0  0  0
    5.7456    0.1423    0.0000 H   0  0  0  0  0  0  0  0  0  0  0  0
    5.3471    0.8326    0.0000 H   0  0  0  0  0  0  0  0  0  0  0  0
    3.4030    1.1000    0.0000 H   0  0  0  0  0  0  0  0  0  0  0  0
    5.3471   -1.3326    0.0000 H   0  0  0  0  0  0  0  0  0  0  0  0
    5.7456   -0.6423    0.0000 H   0  0  0  0  0  0  0  0  0  0  0  0
    2.8660   -1.0600    0.0000 H   0  0  0  0  0  0  0  0  0  0  0  0
    5.4450    1.7131    0.0000 H   0  0  0  0  0  0  0  0  0  0  0  0
    5.6720    2.5600    0.0000 H   0  0  0  0  0  0  0  0  0  0  0  0
    3.7130    2.7869    0.0000 H   0  0  0  0  0  0  0  0  0  0  0  0
    2.8660    2.5600    0.0000 H   0  0  0  0  0  0  0  0  0  0  0  0
    3.0930    1.7131    0.0000 H   0  0  0  0  0  0  0  0  0  0  0  0
    4.8250    2.7869    0.0000 H   0  0  0  0  0  0  0  0  0  0  0  0
    3.6490   -2.2500    0.0000 H   0  0  0  0  0  0  0  0  0  0  0  0
    4.2690   -2.8700    0.0000 H   0  0  0  0  0  0  0  0  0  0  0  0
    4.8890   -2.2500    0.0000 H   0  0  0  0  0  0  0  0  0  0  0  0
    2.0000    0.4400    0.0000 H   0  0  0  0  0  0  0  0  0  0  0  0
  1  5  1  0  0  0  0
  1 29  1  0  0  0  0
  2  3  1  0  0  0  0
  2  4  1  0  0  0  0
  2  5  1  0  0  0  0
  2 12  1  0  0  0  0
  3  6  1  0  0  0  0
  3 14  1  0  0  0  0
  3 15  1  0  0  0  0
  4  9  1  0  0  0  0
  4 10  1  0  0  0  0
  4 13  1  0  0  0  0
  5  8  1  0  0  0  0
  5 16  1  0  0  0  0
  6  7  1  0  0  0  0
  6 17  1  0  0  0  0
  6 18  1  0  0  0  0
  7  8  2  0  0  0  0
  7 11  1  0  0  0  0
  8 19  1  0  0  0  0
  9 20  1  0  0  0  0
  9 21  1  0  0  0  0
  9 25  1  0  0  0  0
 10 22  1  0  0  0  0
 10 23  1  0  0  0  0
 10 24  1  0  0  0  0
 11 26  1  0  0  0  0
 11 27  1  0  0  0  0
 11 28  1  0  0  0  0
M  END
> <PUBCHEM_COMPOUND_CID>
10282

> <PUBCHEM_COMPOUND_CANONICALIZED>
1

> <PUBCHEM_CACTVS_COMPLEXITY>
158

> <PUBCHEM_CACTVS_HBOND_ACCEPTOR>
1

> <PUBCHEM_CACTVS_HBOND_DONOR>
1

> <PUBCHEM_CACTVS_ROTATABLE_BOND>
1

> <PUBCHEM_CACTVS_SUBSKEYS>
AAADceBwIAAAAAAAAAAAAAAAAAAAAAAAAAAgAAAAAAAAAAAAAAAAGgAACAAADRSggAICAAAAAgCAAiBCAAAAAAAgAAAACAAAAAgAFAIAAQAAUAAEgAAIEAOAwEAOgAAAAAAAAAAAAAAAAAAAAAAAAAAAAA==

> <PUBCHEM_IUPAC_OPENEYE_NAME>
6-isopropyl-3-methyl-cyclohex-2-en-1-ol

> <PUBCHEM_IUPAC_CAS_NAME>
3-methyl-6-propan-2-yl-1-cyclohex-2-enol

> <PUBCHEM_IUPAC_NAME>
3-methyl-6-propan-2-ylcyclohex-2-en-1-ol

> <PUBCHEM_IUPAC_SYSTEMATIC_NAME>
3-methyl-6-propan-2-yl-cyclohex-2-en-1-ol

> <PUBCHEM_IUPAC_TRADITIONAL_NAME>
6-isopropyl-3-methyl-cyclohex-2-en-1-ol

> <PUBCHEM_IUPAC_INCHI>
InChI=1S/C10H18O/c1-7(2)9-5-4-8(3)6-10(9)11/h6-7,9-11H,4-5H2,1-3H3

> <PUBCHEM_IUPAC_INCHIKEY>
HPOHAUWWDDPHRS-UHFFFAOYSA-N

> <PUBCHEM_XLOGP3_AA>
2.1

> <PUBCHEM_EXACT_MASS>
154.136

> <PUBCHEM_MOLECULAR_FORMULA>
C10H18O

> <PUBCHEM_MOLECULAR_WEIGHT>
154.253

> <PUBCHEM_OPENEYE_CAN_SMILES>
CC1=CC(C(CC1)C(C)C)O

> <PUBCHEM_OPENEYE_ISO_SMILES>
CC1=CC(C(CC1)C(C)C)O

> <PUBCHEM_CACTVS_TPSA>
20.2

> <PUBCHEM_MONOISOTOPIC_WEIGHT>
154.136

> <PUBCHEM_TOTAL_CHARGE>
0

> <PUBCHEM_HEAVY_ATOM_COUNT>
11

> <PUBCHEM_ATOM_DEF_STEREO_COUNT>
0

> <PUBCHEM_ATOM_UDEF_STEREO_COUNT>
2

> <PUBCHEM_BOND_DEF_STEREO_COUNT>
0

> <PUBCHEM_BOND_UDEF_STEREO_COUNT>
0

> <PUBCHEM_ISOTOPIC_ATOM_COUNT>
0

> <PUBCHEM_COMPONENT_COUNT>
1

> <PUBCHEM_CACTVS_TAUTO_COUNT>
-1

> <PUBCHEM_COORDINATE_TYPE>
1
5
255

> <PUBCHEM_BONDANNOTATIONS>
2  12  3
5  16  3

$$$$
6987
  -OEChem-02201912152D

 27 27  0     1  0  0  0  0  0999 V2000
    2.0000    0.7500    0.0000 O   0  0  0  0  0  0  0  0  0  0  0  0
    3.7320    0.7500    0.0000 C   0  0  3  0  0  0  0  0  0  0  0  0
    3.7320    1.7500    0.0000 C   0  0  0  0  0  0  0  0  0  0  0  0
    4.5981    0.2500    0.0000 C   0  0  0  0  0  0  0  0  0  0  0  0
    4.5981   -0.7500    0.0000 C   0  0  0  0  0  0  0  0  0  0  0  0
    2.8660    0.2500    0.0000 C   0  0  0  0  0  0  0  0  0  0  0  0
    3.7320   -1.2500    0.0000 C   0  0  0  0  0  0  0  0  0  0  0  0
    4.5981    2.2500    0.0000 C   0  0  0  0  0  0  0  0  0  0  0  0
    2.8660    2.2500    0.0000 C   0  0  0  0  0  0  0  0  0  0  0  0
    2.8660   -0.7500    0.0000 C   0  0  0  0  0  0  0  0  0  0  0  0
    3.7320   -2.2500    0.0000 C   0  0  0  0  0  0  0  0  0  0  0  0
    4.2690    1.0600    0.0000 H   0  0  0  0  0  0  0  0  0  0  0  0
    3.7320    2.3700    0.0000 H   0  0  0  0  0  0  0  0  0  0  0  0
    5.2087    0.1423    0.0000 H   0  0  0  0  0  0  0  0  0  0  0  0
    4.8101    0.8326    0.0000 H   0  0  0  0  0  0  0  0  0  0  0  0
    4.8101   -1.3326    0.0000 H   0  0  0  0  0  0  0  0  0  0  0  0
    5.2087   -0.6423    0.0000 H   0  0  0  0  0  0  0  0  0  0  0  0
    4.9081    1.7131    0.0000 H   0  0  0  0  0  0  0  0  0  0  0  0
    5.1350    2.5600    0.0000 H   0  0  0  0  0  0  0  0  0  0  0  0
    4.2881    2.7869    0.0000 H   0  0  0  0  0  0  0  0  0  0  0  0
    3.1760    2.7869    0.0000 H   0  0  0  0  0  0  0  0  0  0  0  0
    2.3291    2.5600    0.0000 H   0  0  0  0  0  0  0  0  0  0  0  0
    2.5560    1.7131    0.0000 H   0  0  0  0  0  0  0  0  0  0  0  0
    2.3291   -1.0600    0.0000 H   0  0  0  0  0  0  0  0  0  0  0  0
    3.1120   -2.2500    0.0000 H   0  0  0  0  0  0  0  0  0  0  0  0
    3.7320   -2.8700    0.0000 H   0  0  0  0  0  0  0  0  0  0  0  0
    4.3520   -2.2500    0.0000 H   0  0  0  0  0  0  0  0  0  0  0  0
  1  6  2  0  0  0  0
  2  3  1  0  0  0  0
  2  4  1  0  0  0  0
  2  6  1  0  0  0  0
  2 12  1  0  0  0  0
  3  8  1  0  0  0  0
  3  9  1  0  0  0  0
  3 13  1  0  0  0  0
  4  5  1  0  0  0  0
  4 14  1  0  0  0  0
  4 15  1  0  0  0  0
  5  7  1  0  0  0  0
  5 16  1  0  0  0  0
  5 17  1  0  0  0  0
  6 10  1  0  0  0  0
  7 10  2  0  0  0  0
  7 11  1  0  0  0  0
  8 18  1  0  0  0  0
  8 19  1  0  0  0  0
  8 20  1  0  0  0  0
  9 21  1  0  0  0  0
  9 22  1  0  0  0  0
  9 23  1  0  0  0  0
 10 24  1  0  0  0  0
 11 25  1  0  0  0  0
 11 26  1  0  0  0  0
 11 27  1  0  0  0  0
M  END
> <PUBCHEM_COMPOUND_CID>
6987

> <PUBCHEM_COMPOUND_CANONICALIZED>
1

> <PUBCHEM_CACTVS_COMPLEXITY>
189

> <PUBCHEM_CACTVS_HBOND_ACCEPTOR>
1

> <PUBCHEM_CACTVS_HBOND_DONOR>
0

> <PUBCHEM_CACTVS_ROTATABLE_BOND>
1

> <PUBCHEM_CACTVS_SUBSKEYS>
AAADceBwIAAAAAAAAAAAAAAAAAAAAAAAAAAgAAAAAAAAAAAAAAAAGgAAAAAADQSAgAACAAAAAACIAqBSAAAAAAAgAAAACAEAAEgAABIAAQAAAAAAgAAIAQMIiEAOgAAAAAAAAAAAAAAAAAAAAAAAAAAAAA==

> <PUBCHEM_IUPAC_OPENEYE_NAME>
6-isopropyl-3-methyl-cyclohex-2-en-1-one

> <PUBCHEM_IUPAC_CAS_NAME>
3-methyl-6-propan-2-yl-1-cyclohex-2-enone

> <PUBCHEM_IUPAC_NAME>
3-methyl-6-propan-2-ylcyclohex-2-en-1-one

> <PUBCHEM_IUPAC_SYSTEMATIC_NAME>
3-methyl-6-propan-2-yl-cyclohex-2-en-1-one

> <PUBCHEM_IUPAC_TRADITIONAL_NAME>
6-isopropyl-3-methyl-cyclohex-2-en-1-one

> <PUBCHEM_IUPAC_INCHI>
InChI=1S/C10H16O/c1-7(2)9-5-4-8(3)6-10(9)11/h6-7,9H,4-5H2,1-3H3

> <PUBCHEM_IUPAC_INCHIKEY>
YSTPAHQEHQSRJD-UHFFFAOYSA-N

> <PUBCHEM_XLOGP3_AA>
2.2

> <PUBCHEM_EXACT_MASS>
152.12

> <PUBCHEM_MOLECULAR_FORMULA>
C10H16O

> <PUBCHEM_MOLECULAR_WEIGHT>
152.237

> <PUBCHEM_OPENEYE_CAN_SMILES>
CC1=CC(=O)C(CC1)C(C)C

> <PUBCHEM_OPENEYE_ISO_SMILES>
CC1=CC(=O)C(CC1)C(C)C

> <PUBCHEM_CACTVS_TPSA>
17.1

> <PUBCHEM_MONOISOTOPIC_WEIGHT>
152.12

> <PUBCHEM_TOTAL_CHARGE>
0

> <PUBCHEM_HEAVY_ATOM_COUNT>
11

> <PUBCHEM_ATOM_DEF_STEREO_COUNT>
0

> <PUBCHEM_ATOM_UDEF_STEREO_COUNT>
1

> <PUBCHEM_BOND_DEF_STEREO_COUNT>
0

> <PUBCHEM_BOND_UDEF_STEREO_COUNT>
0

> <PUBCHEM_ISOTOPIC_ATOM_COUNT>
0

> <PUBCHEM_COMPONENT_COUNT>
1

> <PUBCHEM_CACTVS_TAUTO_COUNT>
-1

> <PUBCHEM_COORDINATE_TYPE>
1
5
255

> <PUBCHEM_BONDANNOTATIONS>
2  3  3

$$$$
18818
  -OEChem-02201912152D

 26 27  0     1  0  0  0  0  0999 V2000
    3.5388    0.3800    0.0000 C   0  0  3  0  0  0  0  0  0  0  0  0
    3.5388   -0.6200    0.0000 C   0  0  3  0  0  0  0  0  0  0  0  0
    4.4054   -0.1200    0.0000 C   0  0  0  0  0  0  0  0  0  0  0  0
    2.5878    0.6891    0.0000 C   0  0  0  0  0  0  0  0  0  0  0  0
    3.5388    1.3800    0.0000 C   0  0  0  0  0  0  0  0  0  0  0  0
    2.5878   -0.9290    0.0000 C   0  0  0  0  0  0  0  0  0  0  0  0
    2.0000   -0.1200    0.0000 C   0  0  0  0  0  0  0  0  0  0  0  0
    4.4049    1.8800    0.0000 C   0  0  0  0  0  0  0  0  0  0  0  0
    2.6728    1.8800    0.0000 C   0  0  0  0  0  0  0  0  0  0  0  0
    2.2788   -1.8800    0.0000 C   0  0  0  0  0  0  0  0  0  0  0  0
    3.7910   -1.1864    0.0000 H   0  0  0  0  0  0  0  0  0  0  0  0
    4.8039   -0.5949    0.0000 H   0  0  0  0  0  0  0  0  0  0  0  0
    4.8039    0.3550    0.0000 H   0  0  0  0  0  0  0  0  0  0  0  0
    2.8400    1.2554    0.0000 H   0  0  0  0  0  0  0  0  0  0  0  0
    2.0508    0.9991    0.0000 H   0  0  0  0  0  0  0  0  0  0  0  0
    3.5388    2.0000    0.0000 H   0  0  0  0  0  0  0  0  0  0  0  0
    1.5392    0.2949    0.0000 H   0  0  0  0  0  0  0  0  0  0  0  0
    1.5392   -0.5348    0.0000 H   0  0  0  0  0  0  0  0  0  0  0  0
    4.7149    1.3431    0.0000 H   0  0  0  0  0  0  0  0  0  0  0  0
    4.9418    2.1900    0.0000 H   0  0  0  0  0  0  0  0  0  0  0  0
    4.0949    2.4170    0.0000 H   0  0  0  0  0  0  0  0  0  0  0  0
    2.9828    2.4170    0.0000 H   0  0  0  0  0  0  0  0  0  0  0  0
    2.1359    2.1900    0.0000 H   0  0  0  0  0  0  0  0  0  0  0  0
    2.3628    1.3431    0.0000 H   0  0  0  0  0  0  0  0  0  0  0  0
    1.6723   -2.0089    0.0000 H   0  0  0  0  0  0  0  0  0  0  0  0
    2.6936   -2.3408    0.0000 H   0  0  0  0  0  0  0  0  0  0  0  0
  1  2  1  0  0  0  0
  1  3  1  0  0  0  0
  1  4  1  0  0  0  0
  1  5  1  0  0  0  0
  2  3  1  0  0  0  0
  2  6  1  0  0  0  0
  2 11  1  0  0  0  0
  3 12  1  0  0  0  0
  3 13  1  0  0  0  0
  4  7  1  0  0  0  0
  4 14  1  0  0  0  0
  4 15  1  0  0  0  0
  5  8  1  0  0  0  0
  5  9  1  0  0  0  0
  5 16  1  0  0  0  0
  6  7  1  0  0  0  0
  6 10  2  0  0  0  0
  7 17  1  0  0  0  0
  7 18  1  0  0  0  0
  8 19  1  0  0  0  0
  8 20  1  0  0  0  0
  8 21  1  0  0  0  0
  9 22  1  0  0  0  0
  9 23  1  0  0  0  0
  9 24  1  0  0  0  0
 10 25  1  0  0  0  0
 10 26  1  0  0  0  0
M  END
> <PUBCHEM_COMPOUND_CID>
18818

> <PUBCHEM_COMPOUND_CANONICALIZED>
1

> <PUBCHEM_CACTVS_COMPLEXITY>
179

> <PUBCHEM_CACTVS_HBOND_ACCEPTOR>
0

> <PUBCHEM_CACTVS_HBOND_DONOR>
0

> <PUBCHEM_CACTVS_ROTATABLE_BOND>
1

> <PUBCHEM_CACTVS_SUBSKEYS>
AAADceBwAAAAAAAAAAAAAAAAGAAAAYAAAAAwAAAAAAAAAAAAAAAAGAAAAAAADwCAAAACAAAAAACAAgBCAAAAAAAgAAAAAAAAAAgAAAIAAQAAAAAAgAAAAAEAgMAPgAAAAAAAAAAAAAAAAAAAAAAACAAAAA==

> <PUBCHEM_IUPAC_OPENEYE_NAME>
1-isopropyl-4-methylene-bicyclo[3.1.0]hexane

> <PUBCHEM_IUPAC_CAS_NAME>
4-methylene-1-propan-2-ylbicyclo[3.1.0]hexane

> <PUBCHEM_IUPAC_NAME>
4-methylidene-1-propan-2-ylbicyclo[3.1.0]hexane

> <PUBCHEM_IUPAC_SYSTEMATIC_NAME>
4-methylidene-1-propan-2-yl-bicyclo[3.1.0]hexane

> <PUBCHEM_IUPAC_TRADITIONAL_NAME>
1-isopropyl-4-methylene-bicyclo[3.1.0]hexane

> <PUBCHEM_IUPAC_INCHI>
InChI=1S/C10H16/c1-7(2)10-5-4-8(3)9(10)6-10/h7,9H,3-6H2,1-2H3

> <PUBCHEM_IUPAC_INCHIKEY>
NDVASEGYNIMXJL-UHFFFAOYSA-N

> <PUBCHEM_XLOGP3_AA>
3.1

> <PUBCHEM_EXACT_MASS>
136.125

> <PUBCHEM_MOLECULAR_FORMULA>
C10H16

> <PUBCHEM_MOLECULAR_WEIGHT>
136.238

> <PUBCHEM_OPENEYE_CAN_SMILES>
CC(C)C12CCC(=C)C1C2

> <PUBCHEM_OPENEYE_ISO_SMILES>
CC(C)C12CCC(=C)C1C2

> <PUBCHEM_CACTVS_TPSA>
0

> <PUBCHEM_MONOISOTOPIC_WEIGHT>
136.125

> <PUBCHEM_TOTAL_CHARGE>
0

> <PUBCHEM_HEAVY_ATOM_COUNT>
10

> <PUBCHEM_ATOM_DEF_STEREO_COUNT>
0

> <PUBCHEM_ATOM_UDEF_STEREO_COUNT>
2

> <PUBCHEM_BOND_DEF_STEREO_COUNT>
0

> <PUBCHEM_BOND_UDEF_STEREO_COUNT>
0

> <PUBCHEM_ISOTOPIC_ATOM_COUNT>
0

> <PUBCHEM_COMPONENT_COUNT>
1

> <PUBCHEM_CACTVS_TAUTO_COUNT>
-1

> <PUBCHEM_COORDINATE_TYPE>
1
5
255

> <PUBCHEM_BONDANNOTATIONS>
1  2  3
2  6  3

$$$$
7462_2
  -OEChem-02201912152D

 26 26  0     0  0  0  0  0  0999 V2000
    2.8660    0.7500    0.0000 C   0  0  0  0  0  0  0  0  0  0  0  0
    2.8660    1.7500    0.0000 C   0  0  0  0  0  0  0  0  0  0  0  0
    2.0000    0.2500    0.0000 C   0  0  0  0  0  0  0  0  0  0  0  0
    2.0000   -0.7500    0.0000 C   0  0  0  0  0  0  0  0  0  0  0  0
    2.8660   -1.2500    0.0000 C   0  0  0  0  0  0  0  0  0  0  0  0
    3.7320    0.2500    0.0000 C   0  0  0  0  0  0  0  0  0  0  0  0
    3.7320    2.2500    0.0000 C   0  0  0  0  0  0  0  0  0  0  0  0
    2.0000    2.2500    0.0000 C   0  0  0  0  0  0  0  0  0  0  0  0
    3.7320   -0.7500    0.0000 C   0  0  0  0  0  0  0  0  0  0  0  0
    2.8660   -2.2500    0.0000 C   0  0  0  0  0  0  0  0  0  0  0  0
    2.8660    2.3700    0.0000 H   0  0  0  0  0  0  0  0  0  0  0  0
    1.7880    0.8326    0.0000 H   0  0  0  0  0  0  0  0  0  0  0  0
    1.3894    0.1423    0.0000 H   0  0  0  0  0  0  0  0  0  0  0  0
    1.3894   -0.6423    0.0000 H   0  0  0  0  0  0  0  0  0  0  0  0
    1.7880   -1.3326    0.0000 H   0  0  0  0  0  0  0  0  0  0  0  0
    4.2690    0.5600    0.0000 H   0  0  0  0  0  0  0  0  0  0  0  0
    2.3100    2.7869    0.0000 H   0  0  0  0  0  0  0  0  0  0  0  0
    1.4631    2.5600    0.0000 H   0  0  0  0  0  0  0  0  0  0  0  0
    1.6900    1.7131    0.0000 H   0  0  0  0  0  0  0  0  0  0  0  0
    4.0420    1.7131    0.0000 H   0  0  0  0  0  0  0  0  0  0  0  0
    4.2690    2.5600    0.0000 H   0  0  0  0  0  0  0  0  0  0  0  0
    3.4220    2.7869    0.0000 H   0  0  0  0  0  0  0  0  0  0  0  0
    4.2690   -1.0600    0.0000 H   0  0  0  0  0  0  0  0  0  0  0  0
    2.2460   -2.2500    0.0000 H   0  0  0  0  0  0  0  0  0  0  0  0
    2.8660   -2.8700    0.0000 H   0  0  0  0  0  0  0  0  0  0  0  0
    3.4860   -2.2500    0.0000 H   0  0  0  0  0  0  0  0  0  0  0  0
  1  2  1  0  0  0  0
  1  3  1  0  0  0  0
  1  6  2  0  0  0  0
  2  7  1  0  0  0  0
  2  8  1  0  0  0  0
  2 11  1  0  0  0  0
  3  4  1  0  0  0  0
  3 12  1  0  0  0  0
  3 13  1  0  0  0  0
  4  5  1  0  0  0  0
  4 14  1  0  0  0  0
  4 15  1  0  0  0  0
  5  9  2  0  0  0  0
  5 10  1  0  0  0  0
  6  9  1  0  0  0  0
  6 16  1  0  0  0  0
  7 20  1  0  0  0  0
  7 21  1  0  0  0  0
  7 22  1  0  0  0  0
  8 17  1  0  0  0  0
  8 18  1  0  0  0  0
  8 19  1  0  0  0  0
  9 23  1  0  0  0  0
 10 24  1  0  0  0  0
 10 25  1  0  0  0  0
 10 26  1  0  0  0  0
M  END
> <PUBCHEM_COMPOUND_CID>
7462

> <PUBCHEM_COMPOUND_CANONICALIZED>
1

> <PUBCHEM_CACTVS_COMPLEXITY>
171

> <PUBCHEM_CACTVS_HBOND_ACCEPTOR>
0

> <PUBCHEM_CACTVS_HBOND_DONOR>
0

> <PUBCHEM_CACTVS_ROTATABLE_BOND>
1

> <PUBCHEM_CACTVS_SUBSKEYS>
AAADceBwAAAAAAAAAAAAAAAAAAAAAAAAAAAgAAAAAAAAAAAAAAAAGAAAAAAADQCAAAACAAAAAACAAiBCAAAAAAAgAAAACAAAAAgIAAIAAQAAAAAAgAAIgAMAgEAMAAAAAAAAAAAAAAAAAAAAAAAAAAAAAA==

> <PUBCHEM_IUPAC_OPENEYE_NAME>
1-isopropyl-4-methyl-cyclohexa-1,3-diene

> <PUBCHEM_IUPAC_CAS_NAME>
1-methyl-4-propan-2-ylcyclohexa-1,3-diene

> <PUBCHEM_IUPAC_NAME>
1-methyl-4-propan-2-ylcyclohexa-1,3-diene

> <PUBCHEM_IUPAC_SYSTEMATIC_NAME>
1-methyl-4-propan-2-yl-cyclohexa-1,3-diene

> <PUBCHEM_IUPAC_TRADITIONAL_NAME>
1-isopropyl-4-methyl-cyclohexa-1,3-diene

> <PUBCHEM_IUPAC_INCHI>
InChI=1S/C10H16/c1-8(2)10-6-4-9(3)5-7-10/h4,6,8H,5,7H2,1-3H3

> <PUBCHEM_IUPAC_INCHIKEY>
YHQGMYUVUMAZJR-UHFFFAOYSA-N

> <PUBCHEM_XLOGP3_AA>
2.8

> <PUBCHEM_EXACT_MASS>
136.125

> <PUBCHEM_MOLECULAR_FORMULA>
C10H16

> <PUBCHEM_MOLECULAR_WEIGHT>
136.238

> <PUBCHEM_OPENEYE_CAN_SMILES>
CC1=CC=C(CC1)C(C)C

> <PUBCHEM_OPENEYE_ISO_SMILES>
CC1=CC=C(CC1)C(C)C

> <PUBCHEM_CACTVS_TPSA>
0

> <PUBCHEM_MONOISOTOPIC_WEIGHT>
136.125

> <PUBCHEM_TOTAL_CHARGE>
0

> <PUBCHEM_HEAVY_ATOM_COUNT>
10

> <PUBCHEM_ATOM_DEF_STEREO_COUNT>
0

> <PUBCHEM_ATOM_UDEF_STEREO_COUNT>
0

> <PUBCHEM_BOND_DEF_STEREO_COUNT>
0

> <PUBCHEM_BOND_UDEF_STEREO_COUNT>
0

> <PUBCHEM_ISOTOPIC_ATOM_COUNT>
0

> <PUBCHEM_COMPONENT_COUNT>
1

> <PUBCHEM_CACTVS_TAUTO_COUNT>
-1

> <PUBCHEM_COORDINATE_TYPE>
1
5
255

$$$$
11230
  -OEChem-02201912152D

 29 29  0     1  0  0  0  0  0999 V2000
    2.6200    1.5000    0.0000 O   0  0  0  0  0  0  0  0  0  0  0  0
    3.1200    0.6340    0.0000 C   0  0  3  0  0  0  0  0  0  0  0  0
    3.6200    1.5000    0.0000 C   0  0  0  0  0  0  0  0  0  0  0  0
    2.2540    0.1340    0.0000 C   0  0  0  0  0  0  0  0  0  0  0  0
    3.9860    0.1340    0.0000 C   0  0  0  0  0  0  0  0  0  0  0  0
    2.2540   -0.8660    0.0000 C   0  0  0  0  0  0  0  0  0  0  0  0
    3.1200   -1.3660    0.0000 C   0  0  0  0  0  0  0  0  0  0  0  0
    3.9860   -0.8660    0.0000 C   0  0  0  0  0  0  0  0  0  0  0  0
    4.6200    1.5000    0.0000 C   0  0  0  0  0  0  0  0  0  0  0  0
    3.1200    2.3660    0.0000 C   0  0  0  0  0  0  0  0  0  0  0  0
    3.1200   -2.3660    0.0000 C   0  0  0  0  0  0  0  0  0  0  0  0
    3.9300    0.9631    0.0000 H   0  0  0  0  0  0  0  0  0  0  0  0
    2.0419    0.7166    0.0000 H   0  0  0  0  0  0  0  0  0  0  0  0
    1.6434    0.0263    0.0000 H   0  0  0  0  0  0  0  0  0  0  0  0
    4.5966    0.0263    0.0000 H   0  0  0  0  0  0  0  0  0  0  0  0
    4.1981    0.7166    0.0000 H   0  0  0  0  0  0  0  0  0  0  0  0
    1.6434   -0.7584    0.0000 H   0  0  0  0  0  0  0  0  0  0  0  0
    2.0419   -1.4486    0.0000 H   0  0  0  0  0  0  0  0  0  0  0  0
    4.5230   -1.1760    0.0000 H   0  0  0  0  0  0  0  0  0  0  0  0
    3.6569    2.6760    0.0000 H   0  0  0  0  0  0  0  0  0  0  0  0
    2.8100    2.9030    0.0000 H   0  0  0  0  0  0  0  0  0  0  0  0
    2.5831    2.0560    0.0000 H   0  0  0  0  0  0  0  0  0  0  0  0
    4.6200    0.8800    0.0000 H   0  0  0  0  0  0  0  0  0  0  0  0
    5.2400    1.5000    0.0000 H   0  0  0  0  0  0  0  0  0  0  0  0
    4.6200    2.1200    0.0000 H   0  0  0  0  0  0  0  0  0  0  0  0
    2.0000    1.5000    0.0000 H   0  0  0  0  0  0  0  0  0  0  0  0
    2.5000   -2.3660    0.0000 H   0  0  0  0  0  0  0  0  0  0  0  0
    3.1200   -2.9860    0.0000 H   0  0  0  0  0  0  0  0  0  0  0  0
    3.7400   -2.3660    0.0000 H   0  0  0  0  0  0  0  0  0  0  0  0
  1  2  1  0  0  0  0
  1 26  1  0  0  0  0
  2  3  1  0  0  0  0
  2  4  1  0  0  0  0
  2  5  1  0  0  0  0
  3  9  1  0  0  0  0
  3 10  1  0  0  0  0
  3 12  1  0  0  0  0
  4  6  1  0  0  0  0
  4 13  1  0  0  0  0
  4 14  1  0  0  0  0
  5  8  1  0  0  0  0
  5 15  1  0  0  0  0
  5 16  1  0  0  0  0
  6  7  1  0  0  0  0
  6 17  1  0  0  0  0
  6 18  1  0  0  0  0
  7  8  2  0  0  0  0
  7 11  1  0  0  0  0
  8 19  1  0  0  0  0
  9 23  1  0  0  0  0
  9 24  1  0  0  0  0
  9 25  1  0  0  0  0
 10 20  1  0  0  0  0
 10 21  1  0  0  0  0
 10 22  1  0  0  0  0
 11 27  1  0  0  0  0
 11 28  1  0  0  0  0
 11 29  1  0  0  0  0
M  END
> <PUBCHEM_COMPOUND_CID>
11230

> <PUBCHEM_COMPOUND_CANONICALIZED>
1

> <PUBCHEM_CACTVS_COMPLEXITY>
170

> <PUBCHEM_CACTVS_HBOND_ACCEPTOR>
1

> <PUBCHEM_CACTVS_HBOND_DONOR>
1

> <PUBCHEM_CACTVS_ROTATABLE_BOND>
1

> <PUBCHEM_CACTVS_SUBSKEYS>
AAADceBwIAAAAAAAAAAAAAAAAAAAAAAAAAAgAAAAAAAAAAAAAAAAGgAACAAADUSAgAACAAAAAgCAAiBCAAAAAAAgAAAACAAAAAgAAAIAAQAAQAAEwAAIAAOAgEAOgAAAAAAAAAAAAAAAAAAAAAAAAAAAAA==

> <PUBCHEM_IUPAC_OPENEYE_NAME>
1-isopropyl-4-methyl-cyclohex-3-en-1-ol

> <PUBCHEM_IUPAC_CAS_NAME>
4-methyl-1-propan-2-yl-1-cyclohex-3-enol

> <PUBCHEM_IUPAC_NAME>
4-methyl-1-propan-2-ylcyclohex-3-en-1-ol

> <PUBCHEM_IUPAC_SYSTEMATIC_NAME>
4-methyl-1-propan-2-yl-cyclohex-3-en-1-ol

> <PUBCHEM_IUPAC_TRADITIONAL_NAME>
1-isopropyl-4-methyl-cyclohex-3-en-1-ol

> <PUBCHEM_IUPAC_INCHI>
InChI=1S/C10H18O/c1-8(2)10(11)6-4-9(3)5-7-10/h4,8,11H,5-7H2,1-3H3

> <PUBCHEM_IUPAC_INCHIKEY>
WRYLYDPHFGVWKC-UHFFFAOYSA-N

> <PUBCHEM_XLOGP3_AA>
2.2

> <PUBCHEM_EXACT_MASS>
154.136

> <PUBCHEM_MOLECULAR_FORMULA>
C10H18O

> <PUBCHEM_MOLECULAR_WEIGHT>
154.253

> <PUBCHEM_OPENEYE_CAN_SMILES>
CC1=CCC(CC1)(C(C)C)O

> <PUBCHEM_OPENEYE_ISO_SMILES>
CC1=CCC(CC1)(C(C)C)O

> <PUBCHEM_CACTVS_TPSA>
20.2

> <PUBCHEM_MONOISOTOPIC_WEIGHT>
154.136

> <PUBCHEM_TOTAL_CHARGE>
0

> <PUBCHEM_HEAVY_ATOM_COUNT>
11

> <PUBCHEM_ATOM_DEF_STEREO_COUNT>
0

> <PUBCHEM_ATOM_UDEF_STEREO_COUNT>
1

> <PUBCHEM_BOND_DEF_STEREO_COUNT>
0

> <PUBCHEM_BOND_UDEF_STEREO_COUNT>
0

> <PUBCHEM_ISOTOPIC_ATOM_COUNT>
0

> <PUBCHEM_COMPONENT_COUNT>
1

> <PUBCHEM_CACTVS_TAUTO_COUNT>
-1

> <PUBCHEM_COORDINATE_TYPE>
1
5
255

> <PUBCHEM_BONDANNOTATIONS>
2  1  3

$$$$
11463
  -OEChem-02201912152D

 26 26  0     0  0  0  0  0  0999 V2000
    2.0000    0.2500    0.0000 C   0  0  0  0  0  0  0  0  0  0  0  0
    2.8660    0.7500    0.0000 C   0  0  0  0  0  0  0  0  0  0  0  0
    2.0000   -0.7500    0.0000 C   0  0  0  0  0  0  0  0  0  0  0  0
    3.7320    0.2500    0.0000 C   0  0  0  0  0  0  0  0  0  0  0  0
    2.8660   -1.2500    0.0000 C   0  0  0  0  0  0  0  0  0  0  0  0
    3.7320   -0.7500    0.0000 C   0  0  0  0  0  0  0  0  0  0  0  0
    2.8660    1.7500    0.0000 C   0  0  0  0  0  0  0  0  0  0  0  0
    2.8660   -2.2500    0.0000 C   0  0  0  0  0  0  0  0  0  0  0  0
    3.7320    2.2500    0.0000 C   0  0  0  0  0  0  0  0  0  0  0  0
    2.0000    2.2500    0.0000 C   0  0  0  0  0  0  0  0  0  0  0  0
    1.7880    0.8326    0.0000 H   0  0  0  0  0  0  0  0  0  0  0  0
    1.3894    0.1423    0.0000 H   0  0  0  0  0  0  0  0  0  0  0  0
    1.3894   -0.6423    0.0000 H   0  0  0  0  0  0  0  0  0  0  0  0
    1.7880   -1.3326    0.0000 H   0  0  0  0  0  0  0  0  0  0  0  0
    4.3426    0.1423    0.0000 H   0  0  0  0  0  0  0  0  0  0  0  0
    3.9441    0.8326    0.0000 H   0  0  0  0  0  0  0  0  0  0  0  0
    4.2690   -1.0600    0.0000 H   0  0  0  0  0  0  0  0  0  0  0  0
    2.2460   -2.2500    0.0000 H   0  0  0  0  0  0  0  0  0  0  0  0
    2.8660   -2.8700    0.0000 H   0  0  0  0  0  0  0  0  0  0  0  0
    3.4860   -2.2500    0.0000 H   0  0  0  0  0  0  0  0  0  0  0  0
    2.3100    2.7869    0.0000 H   0  0  0  0  0  0  0  0  0  0  0  0
    1.4631    2.5600    0.0000 H   0  0  0  0  0  0  0  0  0  0  0  0
    1.6900    1.7131    0.0000 H   0  0  0  0  0  0  0  0  0  0  0  0
    4.0420    1.7131    0.0000 H   0  0  0  0  0  0  0  0  0  0  0  0
    4.2690    2.5600    0.0000 H   0  0  0  0  0  0  0  0  0  0  0  0
    3.4220    2.7869    0.0000 H   0  0  0  0  0  0  0  0  0  0  0  0
  1  2  1  0  0  0  0
  1  3  1  0  0  0  0
  1 11  1  0  0  0  0
  1 12  1  0  0  0  0
  2  4  1  0  0  0  0
  2  7  2  0  0  0  0
  3  5  1  0  0  0  0
  3 13  1  0  0  0  0
  3 14  1  0  0  0  0
  4  6  1  0  0  0  0
  4 15  1  0  0  0  0
  4 16  1  0  0  0  0
  5  6  2  0  0  0  0
  5  8  1  0  0  0  0
  6 17  1  0  0  0  0
  7  9  1  0  0  0  0
  7 10  1  0  0  0  0
  8 18  1  0  0  0  0
  8 19  1  0  0  0  0
  8 20  1  0  0  0  0
  9 24  1  0  0  0  0
  9 25  1  0  0  0  0
  9 26  1  0  0  0  0
 10 21  1  0  0  0  0
 10 22  1  0  0  0  0
 10 23  1  0  0  0  0
M  END
> <PUBCHEM_COMPOUND_CID>
11463

> <PUBCHEM_COMPOUND_CANONICALIZED>
1

> <PUBCHEM_CACTVS_COMPLEXITY>
178

> <PUBCHEM_CACTVS_HBOND_ACCEPTOR>
0

> <PUBCHEM_CACTVS_HBOND_DONOR>
0

> <PUBCHEM_CACTVS_ROTATABLE_BOND>
0

> <PUBCHEM_CACTVS_SUBSKEYS>
AAADceBwAAAAAAAAAAAAAAAAAAAAAAAAAAAgAAAAAAAAAAAAAAAAGAAAAAAADACAAAACAAAAAACAAiBCAAAAAAAgAAAACAAAAAgAAAIAAQAAAAAAgAAIAAMAgAAAAAAAAAAAAAAAAAAAAAAAAAAAAAAAAA==

> <PUBCHEM_IUPAC_OPENEYE_NAME>
4-isopropylidene-1-methyl-cyclohexene

> <PUBCHEM_IUPAC_CAS_NAME>
1-methyl-4-propan-2-ylidenecyclohexene

> <PUBCHEM_IUPAC_NAME>
1-methyl-4-propan-2-ylidenecyclohexene

> <PUBCHEM_IUPAC_SYSTEMATIC_NAME>
1-methyl-4-propan-2-ylidene-cyclohexene

> <PUBCHEM_IUPAC_TRADITIONAL_NAME>
4-isopropylidene-1-methyl-cyclohexene

> <PUBCHEM_IUPAC_INCHI>
InChI=1S/C10H16/c1-8(2)10-6-4-9(3)5-7-10/h4H,5-7H2,1-3H3

> <PUBCHEM_IUPAC_INCHIKEY>
MOYAFQVGZZPNRA-UHFFFAOYSA-N

> <PUBCHEM_XLOGP3_AA>
2.8

> <PUBCHEM_EXACT_MASS>
136.125

> <PUBCHEM_MOLECULAR_FORMULA>
C10H16

> <PUBCHEM_MOLECULAR_WEIGHT>
136.238

> <PUBCHEM_OPENEYE_CAN_SMILES>
CC1=CCC(=C(C)C)CC1

> <PUBCHEM_OPENEYE_ISO_SMILES>
CC1=CCC(=C(C)C)CC1

> <PUBCHEM_CACTVS_TPSA>
0

> <PUBCHEM_MONOISOTOPIC_WEIGHT>
136.125

> <PUBCHEM_TOTAL_CHARGE>
0

> <PUBCHEM_HEAVY_ATOM_COUNT>
10

> <PUBCHEM_ATOM_DEF_STEREO_COUNT>
0

> <PUBCHEM_ATOM_UDEF_STEREO_COUNT>
0

> <PUBCHEM_BOND_DEF_STEREO_COUNT>
0

> <PUBCHEM_BOND_UDEF_STEREO_COUNT>
0

> <PUBCHEM_ISOTOPIC_ATOM_COUNT>
0

> <PUBCHEM_COMPONENT_COUNT>
1

> <PUBCHEM_CACTVS_TAUTO_COUNT>
-1

> <PUBCHEM_COORDINATE_TYPE>
1
5
255

$$$$
524198
  -OEChem-02201912152D

 24 25  0     1  0  0  0  0  0999 V2000
    3.5388    0.3800    0.0000 C   0  0  3  0  0  0  0  0  0  0  0  0
    3.5388   -0.6200    0.0000 C   0  0  3  0  0  0  0  0  0  0  0  0
    4.4054   -0.1200    0.0000 C   0  0  0  0  0  0  0  0  0  0  0  0
    3.5388    1.3800    0.0000 C   0  0  0  0  0  0  0  0  0  0  0  0
    2.5878    0.6891    0.0000 C   0  0  0  0  0  0  0  0  0  0  0  0
    2.5878   -0.9290    0.0000 C   0  0  0  0  0  0  0  0  0  0  0  0
    2.0000   -0.1200    0.0000 C   0  0  0  0  0  0  0  0  0  0  0  0
    4.4049    1.8800    0.0000 C   0  0  0  0  0  0  0  0  0  0  0  0
    2.6728    1.8800    0.0000 C   0  0  0  0  0  0  0  0  0  0  0  0
    2.2788   -1.8800    0.0000 C   0  0  0  0  0  0  0  0  0  0  0  0
    3.7910   -1.1864    0.0000 H   0  0  0  0  0  0  0  0  0  0  0  0
    4.8039   -0.5949    0.0000 H   0  0  0  0  0  0  0  0  0  0  0  0
    4.8039    0.3550    0.0000 H   0  0  0  0  0  0  0  0  0  0  0  0
    3.5388    2.0000    0.0000 H   0  0  0  0  0  0  0  0  0  0  0  0
    2.3962    1.2787    0.0000 H   0  0  0  0  0  0  0  0  0  0  0  0
    1.3800   -0.1200    0.0000 H   0  0  0  0  0  0  0  0  0  0  0  0
    4.7149    1.3431    0.0000 H   0  0  0  0  0  0  0  0  0  0  0  0
    4.9418    2.1900    0.0000 H   0  0  0  0  0  0  0  0  0  0  0  0
    4.0949    2.4170    0.0000 H   0  0  0  0  0  0  0  0  0  0  0  0
    2.9828    2.4170    0.0000 H   0  0  0  0  0  0  0  0  0  0  0  0
    2.1359    2.1900    0.0000 H   0  0  0  0  0  0  0  0  0  0  0  0
    2.3628    1.3431    0.0000 H   0  0  0  0  0  0  0  0  0  0  0  0
    1.6723   -2.0089    0.0000 H   0  0  0  0  0  0  0  0  0  0  0  0
    2.6936   -2.3408    0.0000 H   0  0  0  0  0  0  0  0  0  0  0  0
  1  2  1  0  0  0  0
  1  3  1  0  0  0  0
  1  4  1  0  0  0  0
  1  5  1  0  0  0  0
  2  3  1  0  0  0  0
  2  6  1  0  0  0  0
  2 11  1  0  0  0  0
  3 12  1  0  0  0  0
  3 13  1  0  0  0  0
  4  8  1  0  0  0  0
  4  9  1  0  0  0  0
  4 14  1  0  0  0  0
  5  7  2  0  0  0  0
  5 15  1  0  0  0  0
  6  7  1  0  0  0  0
  6 10  2  0  0  0  0
  7 16  1  0  0  0  0
  8 17  1  0  0  0  0
  8 18  1  0  0  0  0
  8 19  1  0  0  0  0
  9 20  1  0  0  0  0
  9 21  1  0  0  0  0
  9 22  1  0  0  0  0
 10 23  1  0  0  0  0
 10 24  1  0  0  0  0
M  END
> <PUBCHEM_COMPOUND_CID>
524198

> <PUBCHEM_COMPOUND_CANONICALIZED>
1

> <PUBCHEM_CACTVS_COMPLEXITY>
210

> <PUBCHEM_CACTVS_HBOND_ACCEPTOR>
0

> <PUBCHEM_CACTVS_HBOND_DONOR>
0

> <PUBCHEM_CACTVS_ROTATABLE_BOND>
1

> <PUBCHEM_CACTVS_SUBSKEYS>
AAADccBwAAAAAAAAAAAAAAAAGAAAAQAAAAAgAAAAAAAAAAAAAAAAGAAAAAAADwCAAAACAAAAAACAAiBCAAAAAAAgAAAICAAAAAgIAAIAAQAAAAAAgAAIgAMAgEAPgAAAAAAAAAAAAAAAAAAAAAAAAAAAAA==

> <PUBCHEM_IUPAC_OPENEYE_NAME>
1-isopropyl-4-methylene-bicyclo[3.1.0]hex-2-ene

> <PUBCHEM_IUPAC_CAS_NAME>
4-methylene-1-propan-2-ylbicyclo[3.1.0]hex-2-ene

> <PUBCHEM_IUPAC_NAME>
4-methylidene-1-propan-2-ylbicyclo[3.1.0]hex-2-ene

> <PUBCHEM_IUPAC_SYSTEMATIC_NAME>
4-methylidene-1-propan-2-yl-bicyclo[3.1.0]hex-2-ene

> <PUBCHEM_IUPAC_TRADITIONAL_NAME>
1-isopropyl-4-methylene-bicyclo[3.1.0]hex-2-ene

> <PUBCHEM_IUPAC_INCHI>
InChI=1S/C10H14/c1-7(2)10-5-4-8(3)9(10)6-10/h4-5,7,9H,3,6H2,1-2H3

> <PUBCHEM_IUPAC_INCHIKEY>
LBVRQJWOZIMWNY-UHFFFAOYSA-N

> <PUBCHEM_XLOGP3_AA>
3

> <PUBCHEM_EXACT_MASS>
134.11

> <PUBCHEM_MOLECULAR_FORMULA>
C10H14

> <PUBCHEM_MOLECULAR_WEIGHT>
134.222

> <PUBCHEM_OPENEYE_CAN_SMILES>
CC(C)C12CC1C(=C)C=C2

> <PUBCHEM_OPENEYE_ISO_SMILES>
CC(C)C12CC1C(=C)C=C2

> <PUBCHEM_CACTVS_TPSA>
0

> <PUBCHEM_MONOISOTOPIC_WEIGHT>
134.11

> <PUBCHEM_TOTAL_CHARGE>
0

> <PUBCHEM_HEAVY_ATOM_COUNT>
10

> <PUBCHEM_ATOM_DEF_STEREO_COUNT>
0

> <PUBCHEM_ATOM_UDEF_STEREO_COUNT>
2

> <PUBCHEM_BOND_DEF_STEREO_COUNT>
0

> <PUBCHEM_BOND_UDEF_STEREO_COUNT>
0

> <PUBCHEM_ISOTOPIC_ATOM_COUNT>
0

> <PUBCHEM_COMPONENT_COUNT>
1

> <PUBCHEM_CACTVS_TAUTO_COUNT>
-1

> <PUBCHEM_COORDINATE_TYPE>
1
5
255

> <PUBCHEM_BONDANNOTATIONS>
1  2  3
2  3  3

$$$$
12304609
  -OEChem-02201912152D

 29 30  0     1  0  0  0  0  0999 V2000
    2.3100   -0.1200    0.0000 O   0  0  0  0  0  0  0  0  0  0  0  0
    4.8488    0.3800    0.0000 C   0  0  2  0  0  0  0  0  0  0  0  0
    4.8488   -0.6200    0.0000 C   0  0  1  0  0  0  0  0  0  0  0  0
    5.7154   -0.1200    0.0000 C   0  0  0  0  0  0  0  0  0  0  0  0
    3.8978   -0.9290    0.0000 C   0  0  1  0  0  0  0  0  0  0  0  0
    3.8978    0.6891    0.0000 C   0  0  0  0  0  0  0  0  0  0  0  0
    3.3100   -0.1200    0.0000 C   0  0  1  0  0  0  0  0  0  0  0  0
    4.8488    1.3800    0.0000 C   0  0  0  0  0  0  0  0  0  0  0  0
    3.5888   -1.8800    0.0000 C   0  0  0  0  0  0  0  0  0  0  0  0
    5.7149    1.8800    0.0000 C   0  0  0  0  0  0  0  0  0  0  0  0
    3.9828    1.8800    0.0000 C   0  0  0  0  0  0  0  0  0  0  0  0
    5.1945   -1.3965    0.0000 H   0  0  0  0  0  0  0  0  0  0  0  0
    6.1139   -0.5949    0.0000 H   0  0  0  0  0  0  0  0  0  0  0  0
    6.1139    0.3550    0.0000 H   0  0  0  0  0  0  0  0  0  0  0  0
    3.2854   -1.0260    0.0000 H   0  0  0  0  0  0  0  0  0  0  0  0
    4.1500    1.2554    0.0000 H   0  0  0  0  0  0  0  0  0  0  0  0
    3.3608    0.9991    0.0000 H   0  0  0  0  0  0  0  0  0  0  0  0
    3.0285    0.4325    0.0000 H   0  0  0  0  0  0  0  0  0  0  0  0
    4.3119    1.0700    0.0000 H   0  0  0  0  0  0  0  0  0  0  0  0
    2.9991   -1.6884    0.0000 H   0  0  0  0  0  0  0  0  0  0  0  0
    3.3972   -2.4697    0.0000 H   0  0  0  0  0  0  0  0  0  0  0  0
    4.1784   -2.0716    0.0000 H   0  0  0  0  0  0  0  0  0  0  0  0
    4.2928    2.4170    0.0000 H   0  0  0  0  0  0  0  0  0  0  0  0
    3.4459    2.1900    0.0000 H   0  0  0  0  0  0  0  0  0  0  0  0
    3.6728    1.3431    0.0000 H   0  0  0  0  0  0  0  0  0  0  0  0
    6.0249    1.3431    0.0000 H   0  0  0  0  0  0  0  0  0  0  0  0
    6.2518    2.1900    0.0000 H   0  0  0  0  0  0  0  0  0  0  0  0
    5.4049    2.4170    0.0000 H   0  0  0  0  0  0  0  0  0  0  0  0
    2.0000   -0.6569    0.0000 H   0  0  0  0  0  0  0  0  0  0  0  0
  7  1  1  6  0  0  0
  1 29  1  0  0  0  0
  2  3  1  0  0  0  0
  2  4  1  0  0  0  0
  2  6  1  0  0  0  0
  2  8  1  6  0  0  0
  3  4  1  0  0  0  0
  3  5  1  0  0  0  0
  3 12  1  6  0  0  0
  4 13  1  0  0  0  0
  4 14  1  0  0  0  0
  5  7  1  0  0  0  0
  5  9  1  6  0  0  0
  5 15  1  0  0  0  0
  6  7  1  0  0  0  0
  6 16  1  0  0  0  0
  6 17  1  0  0  0  0
  7 18  1  0  0  0  0
  8 10  1  0  0  0  0
  8 11  1  0  0  0  0
  8 19  1  0  0  0  0
  9 20  1  0  0  0  0
  9 21  1  0  0  0  0
  9 22  1  0  0  0  0
 10 26  1  0  0  0  0
 10 27  1  0  0  0  0
 10 28  1  0  0  0  0
 11 23  1  0  0  0  0
 11 24  1  0  0  0  0
 11 25  1  0  0  0  0
M  END
> <PUBCHEM_COMPOUND_CID>
12304609

> <PUBCHEM_COMPOUND_CANONICALIZED>
1

> <PUBCHEM_CACTVS_COMPLEXITY>
176

> <PUBCHEM_CACTVS_HBOND_ACCEPTOR>
1

> <PUBCHEM_CACTVS_HBOND_DONOR>
1

> <PUBCHEM_CACTVS_ROTATABLE_BOND>
1

> <PUBCHEM_CACTVS_SUBSKEYS>
AAADceBwIAAAAAAAAAAAAAAAGAAAAYAAAAAwAAAAAAAAAAAAAAAAGgAACAAADxSggAICAAAAAgAAAAAAAAAAAAAAAAAAAAAAAAAAEAIAAAAAQAAEAAAAAAGAwPAPgAAAAAAAAACAAAIAABAAAYAADAAAAA==

> <PUBCHEM_IUPAC_OPENEYE_NAME>
(1~{R},3~{R},4~{S},5~{S})-1-isopropyl-4-methyl-bicyclo[3.1.0]hexan-3-ol

> <PUBCHEM_IUPAC_CAS_NAME>
(1~{R},3~{R},4~{S},5~{S})-4-methyl-1-propan-2-yl-3-bicyclo[3.1.0]hexanol

> <PUBCHEM_IUPAC_NAME>
(1~{R},3~{R},4~{S},5~{S})-4-methyl-1-propan-2-ylbicyclo[3.1.0]hexan-3-ol

> <PUBCHEM_IUPAC_SYSTEMATIC_NAME>
(1~{R},3~{R},4~{S},5~{S})-4-methyl-1-propan-2-yl-bicyclo[3.1.0]hexan-3-ol

> <PUBCHEM_IUPAC_TRADITIONAL_NAME>
(1~{R},3~{R},4~{S},5~{S})-1-isopropyl-4-methyl-bicyclo[3.1.0]hexan-3-ol

> <PUBCHEM_IUPAC_INCHI>
InChI=1S/C10H18O/c1-6(2)10-4-8(10)7(3)9(11)5-10/h6-9,11H,4-5H2,1-3H3/t7-,8-,9+,10+/m0/s1

> <PUBCHEM_IUPAC_INCHIKEY>
DZVXRFMREAADPP-AXTSPUMRSA-N

> <PUBCHEM_XLOGP3_AA>
2.6

> <PUBCHEM_EXACT_MASS>
154.136

> <PUBCHEM_MOLECULAR_FORMULA>
C10H18O

> <PUBCHEM_MOLECULAR_WEIGHT>
154.253

> <PUBCHEM_OPENEYE_CAN_SMILES>
CC1C2CC2(CC1O)C(C)C

> <PUBCHEM_OPENEYE_ISO_SMILES>
C[C@H]1[C@@H]2C[C@@]2(C[C@H]1O)C(C)C

> <PUBCHEM_CACTVS_TPSA>
20.2

> <PUBCHEM_MONOISOTOPIC_WEIGHT>
154.136

> <PUBCHEM_TOTAL_CHARGE>
0

> <PUBCHEM_HEAVY_ATOM_COUNT>
11

> <PUBCHEM_ATOM_DEF_STEREO_COUNT>
4

> <PUBCHEM_ATOM_UDEF_STEREO_COUNT>
0

> <PUBCHEM_BOND_DEF_STEREO_COUNT>
0

> <PUBCHEM_BOND_UDEF_STEREO_COUNT>
0

> <PUBCHEM_ISOTOPIC_ATOM_COUNT>
0

> <PUBCHEM_COMPONENT_COUNT>
1

> <PUBCHEM_CACTVS_TAUTO_COUNT>
-1

> <PUBCHEM_COORDINATE_TYPE>
1
5
255

> <PUBCHEM_BONDANNOTATIONS>
7  1  6
2  8  6
3  12  6
5  9  6

$$$$
79035
  -OEChem-02201912152D

 26 28  0     1  0  0  0  0  0999 V2000
    2.5739   -0.1624    0.0000 C   0  0  0  0  0  0  0  0  0  0  0  0
    2.0000   -0.5824    0.0000 C   0  0  3  0  0  0  0  0  0  0  0  0
    2.3886    0.6108    0.0000 C   0  0  3  0  0  0  0  0  0  0  0  0
    3.2246   -0.3249    0.0000 C   0  0  0  0  0  0  0  0  0  0  0  0
    4.0843    0.0004    0.0000 C   0  0  0  0  0  0  0  0  0  0  0  0
    3.3827    0.7441    0.0000 C   0  0  0  0  0  0  0  0  0  0  0  0
    3.3827   -0.9608    0.0000 C   0  0  0  0  0  0  0  0  0  0  0  0
    2.8211    0.9608    0.0000 C   0  0  0  0  0  0  0  0  0  0  0  0
    4.0904   -0.8254    0.0000 C   0  0  0  0  0  0  0  0  0  0  0  0
    3.9331    0.5809    0.0000 C   0  0  0  0  0  0  0  0  0  0  0  0
    1.9917    1.0871    0.0000 H   0  0  0  0  0  0  0  0  0  0  0  0
    1.4542   -0.8766    0.0000 H   0  0  0  0  0  0  0  0  0  0  0  0
    4.7031    0.0393    0.0000 H   0  0  0  0  0  0  0  0  0  0  0  0
    3.1480   -1.5346    0.0000 H   0  0  0  0  0  0  0  0  0  0  0  0
    3.9240   -1.2631    0.0000 H   0  0  0  0  0  0  0  0  0  0  0  0
    3.9117    1.0674    0.0000 H   0  0  0  0  0  0  0  0  0  0  0  0
    3.1754    1.3284    0.0000 H   0  0  0  0  0  0  0  0  0  0  0  0
    3.4266    0.8275    0.0000 H   0  0  0  0  0  0  0  0  0  0  0  0
    2.9543    1.5663    0.0000 H   0  0  0  0  0  0  0  0  0  0  0  0
    2.2156    1.0940    0.0000 H   0  0  0  0  0  0  0  0  0  0  0  0
    3.7802   -1.3621    0.0000 H   0  0  0  0  0  0  0  0  0  0  0  0
    4.6272   -1.1356    0.0000 H   0  0  0  0  0  0  0  0  0  0  0  0
    4.4007   -0.2886    0.0000 H   0  0  0  0  0  0  0  0  0  0  0  0
    4.4214    0.1990    0.0000 H   0  0  0  0  0  0  0  0  0  0  0  0
    4.3150    1.0693    0.0000 H   0  0  0  0  0  0  0  0  0  0  0  0
    3.4447    0.9629    0.0000 H   0  0  0  0  0  0  0  0  0  0  0  0
  1  2  1  0  0  0  0
  1  3  1  0  0  0  0
  1  4  1  0  0  0  0
  1  8  1  0  0  0  0
  2  3  1  0  0  0  0
  2  7  1  0  0  0  0
  2 12  1  0  0  0  0
  3  6  1  0  0  0  0
  3 11  1  0  0  0  0
  4  5  1  0  0  0  0
  4  9  1  0  0  0  0
  4 10  1  0  0  0  0
  5  6  1  0  0  0  0
  5  7  1  0  0  0  0
  5 13  1  0  0  0  0
  6 16  1  0  0  0  0
  6 17  1  0  0  0  0
  7 14  1  0  0  0  0
  7 15  1  0  0  0  0
  8 18  1  0  0  0  0
  8 19  1  0  0  0  0
  8 20  1  0  0  0  0
  9 21  1  0  0  0  0
  9 22  1  0  0  0  0
  9 23  1  0  0  0  0
 10 24  1  0  0  0  0
 10 25  1  0  0  0  0
 10 26  1  0  0  0  0
M  END
> <PUBCHEM_COMPOUND_CID>
79035

> <PUBCHEM_COMPOUND_CANONICALIZED>
1

> <PUBCHEM_CACTVS_COMPLEXITY>
190

> <PUBCHEM_CACTVS_HBOND_ACCEPTOR>
0

> <PUBCHEM_CACTVS_HBOND_DONOR>
0

> <PUBCHEM_CACTVS_ROTATABLE_BOND>
0

> <PUBCHEM_CACTVS_SUBSKEYS>
AAADceBwAAAAAAAAAAAAAAAAGAAAAYMGAAAAAAAAAAAAAAAAAAAAGAAAAAAADwCAAAACAAAAAAAAAAAAAAAAAAAAAAAAAAAAAAAAAAIAAAAAAAAAAAAAAAEAgMAPgAAAAAAAAACAAAQAACAAAQAACAAAAA==

> <PUBCHEM_IUPAC_OPENEYE_NAME>
1,7,7-trimethyltricyclo[2.2.1.0^{2,6}]heptane

> <PUBCHEM_IUPAC_CAS_NAME>
1,7,7-trimethyltricyclo[2.2.1.0^{2,6}]heptane

> <PUBCHEM_IUPAC_NAME>
1,7,7-trimethyltricyclo[2.2.1.0^{2,6}]heptane

> <PUBCHEM_IUPAC_SYSTEMATIC_NAME>
1,7,7-trimethyltricyclo[2.2.1.0^{2,6}]heptane

> <PUBCHEM_IUPAC_TRADITIONAL_NAME>
1,7,7-trimethyltricyclo[2.2.1.0^{2,6}]heptane

> <PUBCHEM_IUPAC_INCHI>
InChI=1S/C10H16/c1-9(2)6-4-7-8(5-6)10(7,9)3/h6-8H,4-5H2,1-3H3

> <PUBCHEM_IUPAC_INCHIKEY>
RRBYUSWBLVXTQN-UHFFFAOYSA-N

> <PUBCHEM_XLOGP3_AA>
3.2

> <PUBCHEM_EXACT_MASS>
136.125

> <PUBCHEM_MOLECULAR_FORMULA>
C10H16

> <PUBCHEM_MOLECULAR_WEIGHT>
136.238

> <PUBCHEM_OPENEYE_CAN_SMILES>
CC1(C2CC3C1(C3C2)C)C

> <PUBCHEM_OPENEYE_ISO_SMILES>
CC1(C2CC3C1(C3C2)C)C

> <PUBCHEM_CACTVS_TPSA>
0

> <PUBCHEM_MONOISOTOPIC_WEIGHT>
136.125

> <PUBCHEM_TOTAL_CHARGE>
0

> <PUBCHEM_HEAVY_ATOM_COUNT>
10

> <PUBCHEM_ATOM_DEF_STEREO_COUNT>
0

> <PUBCHEM_ATOM_UDEF_STEREO_COUNT>
2

> <PUBCHEM_BOND_DEF_STEREO_COUNT>
0

> <PUBCHEM_BOND_UDEF_STEREO_COUNT>
0

> <PUBCHEM_ISOTOPIC_ATOM_COUNT>
0

> <PUBCHEM_COMPONENT_COUNT>
1

> <PUBCHEM_CACTVS_TAUTO_COUNT>
-1

> <PUBCHEM_COORDINATE_TYPE>
1
5
255

> <PUBCHEM_BONDANNOTATIONS>
2  1  3
3  1  3

$$$$
29025
  -OEChem-02201912152D

 25 26  0     1  0  0  0  0  0999 V2000
    3.2040   -1.9068    0.0000 O   0  0  0  0  0  0  0  0  0  0  0  0
    5.7890   -0.0329    0.0000 C   0  0  0  0  0  0  0  0  0  0  0  0
    4.6489    0.9242    0.0000 C   0  0  3  0  0  0  0  0  0  0  0  0
    4.3901   -0.0417    0.0000 C   0  0  3  0  0  0  0  0  0  0  0  0
    3.9123    1.9068    0.0000 C   0  0  0  0  0  0  0  0  0  0  0  0
    2.6157    0.6130    0.0000 C   0  0  0  0  0  0  0  0  0  0  0  0
    6.2890   -0.8990    0.0000 C   0  0  0  0  0  0  0  0  0  0  0  0
    6.6550    0.4671    0.0000 C   0  0  0  0  0  0  0  0  0  0  0  0
    3.1691   -0.9074    0.0000 C   0  0  0  0  0  0  0  0  0  0  0  0
    2.3400   -0.3482    0.0000 C   0  0  0  0  0  0  0  0  0  0  0  0
    2.0000    1.4011    0.0000 C   0  0  0  0  0  0  0  0  0  0  0  0
    5.0992    1.3504    0.0000 H   0  0  0  0  0  0  0  0  0  0  0  0
    4.5801   -0.6319    0.0000 H   0  0  0  0  0  0  0  0  0  0  0  0
    4.2301    2.4392    0.0000 H   0  0  0  0  0  0  0  0  0  0  0  0
    3.2992    1.9988    0.0000 H   0  0  0  0  0  0  0  0  0  0  0  0
    5.7521   -1.2090    0.0000 H   0  0  0  0  0  0  0  0  0  0  0  0
    6.5990   -1.4359    0.0000 H   0  0  0  0  0  0  0  0  0  0  0  0
    6.9650   -0.0699    0.0000 H   0  0  0  0  0  0  0  0  0  0  0  0
    7.1920    0.7771    0.0000 H   0  0  0  0  0  0  0  0  0  0  0  0
    6.3450    1.0040    0.0000 H   0  0  0  0  0  0  0  0  0  0  0  0
    6.8260   -0.5890    0.0000 H   0  0  0  0  0  0  0  0  0  0  0  0
    1.7574   -0.5603    0.0000 H   0  0  0  0  0  0  0  0  0  0  0  0
    2.4886    1.7828    0.0000 H   0  0  0  0  0  0  0  0  0  0  0  0
    1.6183    1.8896    0.0000 H   0  0  0  0  0  0  0  0  0  0  0  0
    1.5114    1.0194    0.0000 H   0  0  0  0  0  0  0  0  0  0  0  0
  1  9  2  0  0  0  0
  2  3  1  0  0  0  0
  2  4  1  0  0  0  0
  2  7  1  0  0  0  0
  2  8  1  0  0  0  0
  3  5  1  0  0  0  0
  3  6  1  0  0  0  0
  3 12  1  0  0  0  0
  4  5  1  0  0  0  0
  4  9  1  0  0  0  0
  4 13  1  0  0  0  0
  5 14  1  0  0  0  0
  5 15  1  0  0  0  0
  6 10  2  0  0  0  0
  6 11  1  0  0  0  0
  7 16  1  0  0  0  0
  7 17  1  0  0  0  0
  7 21  1  0  0  0  0
  8 18  1  0  0  0  0
  8 19  1  0  0  0  0
  8 20  1  0  0  0  0
  9 10  1  0  0  0  0
 10 22  1  0  0  0  0
 11 23  1  0  0  0  0
 11 24  1  0  0  0  0
 11 25  1  0  0  0  0
M  END
> <PUBCHEM_COMPOUND_CID>
29025

> <PUBCHEM_COMPOUND_CANONICALIZED>
1

> <PUBCHEM_CACTVS_COMPLEXITY>
248

> <PUBCHEM_CACTVS_HBOND_ACCEPTOR>
1

> <PUBCHEM_CACTVS_HBOND_DONOR>
0

> <PUBCHEM_CACTVS_ROTATABLE_BOND>
0

> <PUBCHEM_CACTVS_SUBSKEYS>
AAADccBwIAAAAAAAAAAAAAAAAABgAAAAAAAgQAAAAAAAAAAAAAAAGgAAAAAADwSAgAACAAAAAACIAqBSAAAAAAAgAAAACAEAAEgAABIAAQAAAAAAgAAIAQMIiEAPgAAAAAAAAAAAAAAAAAAAAAAAAAAAAA==

> <PUBCHEM_IUPAC_OPENEYE_NAME>
4,6,6-trimethylbicyclo[3.1.1]hept-3-en-2-one

> <PUBCHEM_IUPAC_CAS_NAME>
4,6,6-trimethyl-2-bicyclo[3.1.1]hept-3-enone

> <PUBCHEM_IUPAC_NAME>
4,6,6-trimethylbicyclo[3.1.1]hept-3-en-2-one

> <PUBCHEM_IUPAC_SYSTEMATIC_NAME>
4,6,6-trimethylbicyclo[3.1.1]hept-3-en-2-one

> <PUBCHEM_IUPAC_TRADITIONAL_NAME>
4,6,6-trimethylbicyclo[3.1.1]hept-3-en-2-one

> <PUBCHEM_IUPAC_INCHI>
InChI=1S/C10H14O/c1-6-4-9(11)8-5-7(6)10(8,2)3/h4,7-8H,5H2,1-3H3

> <PUBCHEM_IUPAC_INCHIKEY>
DCSCXTJOXBUFGB-UHFFFAOYSA-N

> <PUBCHEM_XLOGP3_AA>
1.6

> <PUBCHEM_EXACT_MASS>
150.104

> <PUBCHEM_MOLECULAR_FORMULA>
C10H14O

> <PUBCHEM_MOLECULAR_WEIGHT>
150.221

> <PUBCHEM_OPENEYE_CAN_SMILES>
CC1=CC(=O)C2CC1C2(C)C

> <PUBCHEM_OPENEYE_ISO_SMILES>
CC1=CC(=O)C2CC1C2(C)C

> <PUBCHEM_CACTVS_TPSA>
17.1

> <PUBCHEM_MONOISOTOPIC_WEIGHT>
150.104

> <PUBCHEM_TOTAL_CHARGE>
0

> <PUBCHEM_HEAVY_ATOM_COUNT>
11

> <PUBCHEM_ATOM_DEF_STEREO_COUNT>
0

> <PUBCHEM_ATOM_UDEF_STEREO_COUNT>
2

> <PUBCHEM_BOND_DEF_STEREO_COUNT>
0

> <PUBCHEM_BOND_UDEF_STEREO_COUNT>
0

> <PUBCHEM_ISOTOPIC_ATOM_COUNT>
0

> <PUBCHEM_COMPONENT_COUNT>
1

> <PUBCHEM_CACTVS_TAUTO_COUNT>
-1

> <PUBCHEM_COORDINATE_TYPE>
1
5
255

> <PUBCHEM_BONDANNOTATIONS>
3  2  3
4  2  3

$$$$
22310
  -OEChem-02201912152D

 30 30  0     1  0  0  0  0  0999 V2000
    3.9680   -0.6013    0.0000 O   0  0  0  0  0  0  0  0  0  0  0  0
    6.6791   -0.6316    0.0000 O   0  0  0  0  0  0  0  0  0  0  0  0
    4.7770   -0.0135    0.0000 C   0  0  3  0  0  0  0  0  0  0  0  0
    3.1590   -0.0135    0.0000 C   0  0  3  0  0  0  0  0  0  0  0  0
    4.4680    0.9375    0.0000 C   0  0  0  0  0  0  0  0  0  0  0  0
    3.4680    0.9375    0.0000 C   0  0  0  0  0  0  0  0  0  0  0  0
    5.7281   -0.3226    0.0000 C   0  0  0  0  0  0  0  0  0  0  0  0
    2.5712   -0.8226    0.0000 C   0  0  0  0  0  0  0  0  0  0  0  0
    6.0371    0.6285    0.0000 C   0  0  0  0  0  0  0  0  0  0  0  0
    5.4190   -1.2736    0.0000 C   0  0  0  0  0  0  0  0  0  0  0  0
    2.2079    0.2955    0.0000 C   0  0  0  0  0  0  0  0  0  0  0  0
    2.0000    1.2736    0.0000 C   0  0  0  0  0  0  0  0  0  0  0  0
    4.8740   -0.6259    0.0000 H   0  0  0  0  0  0  0  0  0  0  0  0
    5.0744    1.0664    0.0000 H   0  0  0  0  0  0  0  0  0  0  0  0
    4.4032    1.5541    0.0000 H   0  0  0  0  0  0  0  0  0  0  0  0
    3.5328    1.5541    0.0000 H   0  0  0  0  0  0  0  0  0  0  0  0
    2.8615    1.0664    0.0000 H   0  0  0  0  0  0  0  0  0  0  0  0
    2.0696   -0.4581    0.0000 H   0  0  0  0  0  0  0  0  0  0  0  0
    2.2068   -1.3242    0.0000 H   0  0  0  0  0  0  0  0  0  0  0  0
    3.0728   -1.1870    0.0000 H   0  0  0  0  0  0  0  0  0  0  0  0
    4.8294   -1.0820    0.0000 H   0  0  0  0  0  0  0  0  0  0  0  0
    5.2274   -1.8633    0.0000 H   0  0  0  0  0  0  0  0  0  0  0  0
    6.0087   -1.4652    0.0000 H   0  0  0  0  0  0  0  0  0  0  0  0
    6.6267    0.4369    0.0000 H   0  0  0  0  0  0  0  0  0  0  0  0
    6.2287    1.2182    0.0000 H   0  0  0  0  0  0  0  0  0  0  0  0
    5.4474    0.8201    0.0000 H   0  0  0  0  0  0  0  0  0  0  0  0
    1.7472   -0.1194    0.0000 H   0  0  0  0  0  0  0  0  0  0  0  0
    7.1399   -0.2167    0.0000 H   0  0  0  0  0  0  0  0  0  0  0  0
    2.4608    1.6885    0.0000 H   0  0  0  0  0  0  0  0  0  0  0  0
    1.4103    1.4652    0.0000 H   0  0  0  0  0  0  0  0  0  0  0  0
  1  3  1  0  0  0  0
  1  4  1  0  0  0  0
  2  7  1  0  0  0  0
  2 28  1  0  0  0  0
  3  5  1  0  0  0  0
  3  7  1  0  0  0  0
  3 13  1  0  0  0  0
  4  6  1  0  0  0  0
  4  8  1  0  0  0  0
  4 11  1  0  0  0  0
  5  6  1  0  0  0  0
  5 14  1  0  0  0  0
  5 15  1  0  0  0  0
  6 16  1  0  0  0  0
  6 17  1  0  0  0  0
  7  9  1  0  0  0  0
  7 10  1  0  0  0  0
  8 18  1  0  0  0  0
  8 19  1  0  0  0  0
  8 20  1  0  0  0  0
  9 24  1  0  0  0  0
  9 25  1  0  0  0  0
  9 26  1  0  0  0  0
 10 21  1  0  0  0  0
 10 22  1  0  0  0  0
 10 23  1  0  0  0  0
 11 12  2  0  0  0  0
 11 27  1  0  0  0  0
 12 29  1  0  0  0  0
 12 30  1  0  0  0  0
M  END
> <PUBCHEM_COMPOUND_CID>
22310

> <PUBCHEM_COMPOUND_CANONICALIZED>
1

> <PUBCHEM_CACTVS_COMPLEXITY>
186

> <PUBCHEM_CACTVS_HBOND_ACCEPTOR>
2

> <PUBCHEM_CACTVS_HBOND_DONOR>
1

> <PUBCHEM_CACTVS_ROTATABLE_BOND>
2

> <PUBCHEM_CACTVS_SUBSKEYS>
AAADceBwMAAAAAAAAAAAAAAAAAAAASAAAAAAAAAAAAAAAAAAAAAAGgAACAAADFSggAICAAAABgCAACBCAAAAAAAgAAAIAAAAAAgBBAIAIAACQAAEgAADIAGA4FQMAAAAAAAAAAAAAAAAAAAAAAAAAAAAAA==

> <PUBCHEM_IUPAC_OPENEYE_NAME>
2-(5-methyl-5-vinyl-tetrahydrofuran-2-yl)propan-2-ol

> <PUBCHEM_IUPAC_CAS_NAME>
2-(5-ethenyl-5-methyl-2-oxolanyl)-2-propanol

> <PUBCHEM_IUPAC_NAME>
2-(5-ethenyl-5-methyloxolan-2-yl)propan-2-ol

> <PUBCHEM_IUPAC_SYSTEMATIC_NAME>
2-(5-ethenyl-5-methyl-oxolan-2-yl)propan-2-ol

> <PUBCHEM_IUPAC_TRADITIONAL_NAME>
2-(5-methyl-5-vinyl-tetrahydrofuran-2-yl)propan-2-ol

> <PUBCHEM_IUPAC_INCHI>
InChI=1S/C10H18O2/c1-5-10(4)7-6-8(12-10)9(2,3)11/h5,8,11H,1,6-7H2,2-4H3

> <PUBCHEM_IUPAC_INCHIKEY>
BRHDDEIRQPDPMG-UHFFFAOYSA-N

> <PUBCHEM_XLOGP3_AA>
1.4

> <PUBCHEM_EXACT_MASS>
170.131

> <PUBCHEM_MOLECULAR_FORMULA>
C10H18O2

> <PUBCHEM_MOLECULAR_WEIGHT>
170.252

> <PUBCHEM_OPENEYE_CAN_SMILES>
CC1(CCC(O1)C(C)(C)O)C=C

> <PUBCHEM_OPENEYE_ISO_SMILES>
CC1(CCC(O1)C(C)(C)O)C=C

> <PUBCHEM_CACTVS_TPSA>
29.5

> <PUBCHEM_MONOISOTOPIC_WEIGHT>
170.131

> <PUBCHEM_TOTAL_CHARGE>
0

> <PUBCHEM_HEAVY_ATOM_COUNT>
12

> <PUBCHEM_ATOM_DEF_STEREO_COUNT>
0

> <PUBCHEM_ATOM_UDEF_STEREO_COUNT>
2

> <PUBCHEM_BOND_DEF_STEREO_COUNT>
0

> <PUBCHEM_BOND_UDEF_STEREO_COUNT>
0

> <PUBCHEM_ISOTOPIC_ATOM_COUNT>
0

> <PUBCHEM_COMPONENT_COUNT>
1

> <PUBCHEM_CACTVS_TAUTO_COUNT>
-1

> <PUBCHEM_COORDINATE_TYPE>
1
5
255

> <PUBCHEM_BONDANNOTATIONS>
3  7  3
4  11  3

$$$$
6428574
  -OEChem-02201912152D

 30 30  0     1  0  0  0  0  0999 V2000
    3.8660   -1.1270    0.0000 O   0  0  0  0  0  0  0  0  0  0  0  0
    2.1340    0.8730    0.0000 O   0  0  0  0  0  0  0  0  0  0  0  0
    3.0000   -0.6270    0.0000 C   0  0  0  0  0  0  0  0  0  0  0  0
    3.0000    0.3730    0.0000 C   0  0  1  0  0  0  0  0  0  0  0  0
    4.7320   -0.6270    0.0000 C   0  0  1  0  0  0  0  0  0  0  0  0
    3.8660    0.8730    0.0000 C   0  0  0  0  0  0  0  0  0  0  0  0
    4.7320    0.3730    0.0000 C   0  0  0  0  0  0  0  0  0  0  0  0
    2.0000   -0.6270    0.0000 C   0  0  0  0  0  0  0  0  0  0  0  0
    2.5000   -1.4930    0.0000 C   0  0  0  0  0  0  0  0  0  0  0  0
    5.2320   -1.4930    0.0000 C   0  0  0  0  0  0  0  0  0  0  0  0
    5.7320   -0.6270    0.0000 C   0  0  0  0  0  0  0  0  0  0  0  0
    6.2320    0.2390    0.0000 C   0  0  0  0  0  0  0  0  0  0  0  0
    3.0000    0.9930    0.0000 H   0  0  0  0  0  0  0  0  0  0  0  0
    4.2646    1.3480    0.0000 H   0  0  0  0  0  0  0  0  0  0  0  0
    3.4675    1.3480    0.0000 H   0  0  0  0  0  0  0  0  0  0  0  0
    5.3426    0.2654    0.0000 H   0  0  0  0  0  0  0  0  0  0  0  0
    4.9441    0.9556    0.0000 H   0  0  0  0  0  0  0  0  0  0  0  0
    2.0000   -0.0070    0.0000 H   0  0  0  0  0  0  0  0  0  0  0  0
    1.3800   -0.6270    0.0000 H   0  0  0  0  0  0  0  0  0  0  0  0
    2.0000   -1.2470    0.0000 H   0  0  0  0  0  0  0  0  0  0  0  0
    1.9631   -1.1830    0.0000 H   0  0  0  0  0  0  0  0  0  0  0  0
    2.1900   -2.0300    0.0000 H   0  0  0  0  0  0  0  0  0  0  0  0
    3.0369   -1.8030    0.0000 H   0  0  0  0  0  0  0  0  0  0  0  0
    4.6951   -1.8030    0.0000 H   0  0  0  0  0  0  0  0  0  0  0  0
    5.5420   -2.0300    0.0000 H   0  0  0  0  0  0  0  0  0  0  0  0
    5.7690   -1.1830    0.0000 H   0  0  0  0  0  0  0  0  0  0  0  0
    6.0420   -1.1639    0.0000 H   0  0  0  0  0  0  0  0  0  0  0  0
    2.1340    1.4930    0.0000 H   0  0  0  0  0  0  0  0  0  0  0  0
    6.8520    0.2390    0.0000 H   0  0  0  0  0  0  0  0  0  0  0  0
    5.9220    0.7760    0.0000 H   0  0  0  0  0  0  0  0  0  0  0  0
  1  3  1  0  0  0  0
  1  5  1  0  0  0  0
  4  2  1  6  0  0  0
  2 28  1  0  0  0  0
  3  4  1  0  0  0  0
  3  8  1  0  0  0  0
  3  9  1  0  0  0  0
  4  6  1  0  0  0  0
  4 13  1  0  0  0  0
  5  7  1  0  0  0  0
  5 10  1  1  0  0  0
  5 11  1  0  0  0  0
  6  7  1  0  0  0  0
  6 14  1  0  0  0  0
  6 15  1  0  0  0  0
  7 16  1  0  0  0  0
  7 17  1  0  0  0  0
  8 18  1  0  0  0  0
  8 19  1  0  0  0  0
  8 20  1  0  0  0  0
  9 21  1  0  0  0  0
  9 22  1  0  0  0  0
  9 23  1  0  0  0  0
 10 24  1  0  0  0  0
 10 25  1  0  0  0  0
 10 26  1  0  0  0  0
 11 12  2  0  0  0  0
 11 27  1  0  0  0  0
 12 29  1  0  0  0  0
 12 30  1  0  0  0  0
M  END
> <PUBCHEM_COMPOUND_CID>
6428574

> <PUBCHEM_COMPOUND_CANONICALIZED>
1

> <PUBCHEM_CACTVS_COMPLEXITY>
186

> <PUBCHEM_CACTVS_HBOND_ACCEPTOR>
2

> <PUBCHEM_CACTVS_HBOND_DONOR>
1

> <PUBCHEM_CACTVS_ROTATABLE_BOND>
1

> <PUBCHEM_CACTVS_SUBSKEYS>
AAADceBwMAAAAAAAAAAAAAAAAAAAAAAAAAAkAAAAAAAAAAAAAAAAGgAACAAADFSggAICAAAABgCAACBCAAAAAAAgAAAIAAAAAAgBFAIAIAACQAAEgAADIAHAwFAMAAAAAAAAAAAAAAAAAAAAAAAAAAAAAA==

> <PUBCHEM_IUPAC_OPENEYE_NAME>
(3~{R},6~{R})-2,2,6-trimethyl-6-vinyl-tetrahydropyran-3-ol

> <PUBCHEM_IUPAC_CAS_NAME>
(3~{R},6~{R})-6-ethenyl-2,2,6-trimethyl-3-oxanol

> <PUBCHEM_IUPAC_NAME>
(3~{R},6~{R})-6-ethenyl-2,2,6-trimethyloxan-3-ol

> <PUBCHEM_IUPAC_SYSTEMATIC_NAME>
(3~{R},6~{R})-6-ethenyl-2,2,6-trimethyl-oxan-3-ol

> <PUBCHEM_IUPAC_TRADITIONAL_NAME>
(3~{R},6~{R})-2,2,6-trimethyl-6-vinyl-tetrahydropyran-3-ol

> <PUBCHEM_IUPAC_INCHI>
InChI=1S/C10H18O2/c1-5-10(4)7-6-8(11)9(2,3)12-10/h5,8,11H,1,6-7H2,2-4H3/t8-,10+/m1/s1

> <PUBCHEM_IUPAC_INCHIKEY>
BCTBAGTXFYWYMW-SCZZXKLOSA-N

> <PUBCHEM_XLOGP3_AA>
1.4

> <PUBCHEM_EXACT_MASS>
170.131

> <PUBCHEM_MOLECULAR_FORMULA>
C10H18O2

> <PUBCHEM_MOLECULAR_WEIGHT>
170.252

> <PUBCHEM_OPENEYE_CAN_SMILES>
CC1(C(CCC(O1)(C)C=C)O)C

> <PUBCHEM_OPENEYE_ISO_SMILES>
C[C@@]1(CC[C@H](C(O1)(C)C)O)C=C

> <PUBCHEM_CACTVS_TPSA>
29.5

> <PUBCHEM_MONOISOTOPIC_WEIGHT>
170.131

> <PUBCHEM_TOTAL_CHARGE>
0

> <PUBCHEM_HEAVY_ATOM_COUNT>
12

> <PUBCHEM_ATOM_DEF_STEREO_COUNT>
2

> <PUBCHEM_ATOM_UDEF_STEREO_COUNT>
0

> <PUBCHEM_BOND_DEF_STEREO_COUNT>
0

> <PUBCHEM_BOND_UDEF_STEREO_COUNT>
0

> <PUBCHEM_ISOTOPIC_ATOM_COUNT>
0

> <PUBCHEM_COMPONENT_COUNT>
1

> <PUBCHEM_CACTVS_TAUTO_COUNT>
-1

> <PUBCHEM_COORDINATE_TYPE>
1
5
255

> <PUBCHEM_BONDANNOTATIONS>
4  2  6
5  10  5

$$$$
8858
  -OEChem-02201912152D

 17 16  0     0  0  0  0  0  0999 V2000
    2.8660   -0.7500    0.0000 O   0  0  0  0  0  0  0  0  0  0  0  0
    4.5981    0.2500    0.0000 C   0  0  0  0  0  0  0  0  0  0  0  0
    3.7320    0.7500    0.0000 C   0  0  0  0  0  0  0  0  0  0  0  0
    5.4641    0.7500    0.0000 C   0  0  0  0  0  0  0  0  0  0  0  0
    4.5981   -0.7500    0.0000 C   0  0  0  0  0  0  0  0  0  0  0  0
    2.8660    0.2500    0.0000 C   0  0  0  0  0  0  0  0  0  0  0  0
    2.0000    0.7500    0.0000 C   0  0  0  0  0  0  0  0  0  0  0  0
    3.7320    1.3700    0.0000 H   0  0  0  0  0  0  0  0  0  0  0  0
    5.7741    0.2131    0.0000 H   0  0  0  0  0  0  0  0  0  0  0  0
    3.9781   -0.7500    0.0000 H   0  0  0  0  0  0  0  0  0  0  0  0
    4.5981   -1.3700    0.0000 H   0  0  0  0  0  0  0  0  0  0  0  0
    5.2181   -0.7500    0.0000 H   0  0  0  0  0  0  0  0  0  0  0  0
    6.0010    1.0600    0.0000 H   0  0  0  0  0  0  0  0  0  0  0  0
    5.1541    1.2869    0.0000 H   0  0  0  0  0  0  0  0  0  0  0  0
    2.3100    1.2869    0.0000 H   0  0  0  0  0  0  0  0  0  0  0  0
    1.4631    1.0600    0.0000 H   0  0  0  0  0  0  0  0  0  0  0  0
    1.6900    0.2131    0.0000 H   0  0  0  0  0  0  0  0  0  0  0  0
  1  6  2  0  0  0  0
  2  3  2  0  0  0  0
  2  4  1  0  0  0  0
  2  5  1  0  0  0  0
  3  6  1  0  0  0  0
  3  8  1  0  0  0  0
  4  9  1  0  0  0  0
  4 13  1  0  0  0  0
  4 14  1  0  0  0  0
  5 10  1  0  0  0  0
  5 11  1  0  0  0  0
  5 12  1  0  0  0  0
  6  7  1  0  0  0  0
  7 15  1  0  0  0  0
  7 16  1  0  0  0  0
  7 17  1  0  0  0  0
M  END
> <PUBCHEM_COMPOUND_CID>
8858

> <PUBCHEM_COMPOUND_CANONICALIZED>
1

> <PUBCHEM_CACTVS_COMPLEXITY>
96.7

> <PUBCHEM_CACTVS_HBOND_ACCEPTOR>
1

> <PUBCHEM_CACTVS_HBOND_DONOR>
0

> <PUBCHEM_CACTVS_ROTATABLE_BOND>
1

> <PUBCHEM_CACTVS_SUBSKEYS>
AAADccBgIAAAAAAAAAAAAAAAAAAAAAAAAAAAAAAAAAAAAAAAAAAAGgAAAAAADASAgAACAAAAAACIAqBSAAAAAAAgAAAACAAAAEgAAAAAAQAAAAAAAAAIAQIAAAAAAAAAAAAAAAAAAAAAAAAAAAAAAAAAAA==

> <PUBCHEM_IUPAC_OPENEYE_NAME>
4-methylpent-3-en-2-one

> <PUBCHEM_IUPAC_CAS_NAME>
4-methyl-3-penten-2-one

> <PUBCHEM_IUPAC_NAME>
4-methylpent-3-en-2-one

> <PUBCHEM_IUPAC_SYSTEMATIC_NAME>
4-methylpent-3-en-2-one

> <PUBCHEM_IUPAC_TRADITIONAL_NAME>
4-methylpent-3-en-2-one

> <PUBCHEM_IUPAC_INCHI>
InChI=1S/C6H10O/c1-5(2)4-6(3)7/h4H,1-3H3

> <PUBCHEM_IUPAC_INCHIKEY>
SHOJXDKTYKFBRD-UHFFFAOYSA-N

> <PUBCHEM_XLOGP3_AA>
1.4

> <PUBCHEM_EXACT_MASS>
98.073

> <PUBCHEM_MOLECULAR_FORMULA>
C6H10O

> <PUBCHEM_MOLECULAR_WEIGHT>
98.145

> <PUBCHEM_OPENEYE_CAN_SMILES>
CC(=CC(=O)C)C

> <PUBCHEM_OPENEYE_ISO_SMILES>
CC(=CC(=O)C)C

> <PUBCHEM_CACTVS_TPSA>
17.1

> <PUBCHEM_MONOISOTOPIC_WEIGHT>
98.073

> <PUBCHEM_TOTAL_CHARGE>
0

> <PUBCHEM_HEAVY_ATOM_COUNT>
7

> <PUBCHEM_ATOM_DEF_STEREO_COUNT>
0

> <PUBCHEM_ATOM_UDEF_STEREO_COUNT>
0

> <PUBCHEM_BOND_DEF_STEREO_COUNT>
0

> <PUBCHEM_BOND_UDEF_STEREO_COUNT>
0

> <PUBCHEM_ISOTOPIC_ATOM_COUNT>
0

> <PUBCHEM_COMPONENT_COUNT>
1

> <PUBCHEM_CACTVS_TAUTO_COUNT>
-1

> <PUBCHEM_COORDINATE_TYPE>
1
5
255

$$$$
9862_2
  -OEChem-02201912152D

 23 22  0     0  0  0  0  0  0999 V2000
    2.8660   -0.7500    0.0000 O   0  0  0  0  0  0  0  0  0  0  0  0
    4.5981    0.2500    0.0000 C   0  0  0  0  0  0  0  0  0  0  0  0
    3.7320    0.7500    0.0000 C   0  0  0  0  0  0  0  0  0  0  0  0
    5.4641    0.7500    0.0000 C   0  0  0  0  0  0  0  0  0  0  0  0
    6.3301    0.2500    0.0000 C   0  0  0  0  0  0  0  0  0  0  0  0
    2.8660    0.2500    0.0000 C   0  0  0  0  0  0  0  0  0  0  0  0
    7.1962    0.7500    0.0000 C   0  0  0  0  0  0  0  0  0  0  0  0
    6.3301   -0.7500    0.0000 C   0  0  0  0  0  0  0  0  0  0  0  0
    2.0000    0.7500    0.0000 C   0  0  0  0  0  0  0  0  0  0  0  0
    4.1996   -0.2249    0.0000 H   0  0  0  0  0  0  0  0  0  0  0  0
    4.9966   -0.2249    0.0000 H   0  0  0  0  0  0  0  0  0  0  0  0
    4.1306    1.2250    0.0000 H   0  0  0  0  0  0  0  0  0  0  0  0
    3.3335    1.2250    0.0000 H   0  0  0  0  0  0  0  0  0  0  0  0
    5.4641    1.3700    0.0000 H   0  0  0  0  0  0  0  0  0  0  0  0
    7.5062    0.2131    0.0000 H   0  0  0  0  0  0  0  0  0  0  0  0
    7.7331    1.0600    0.0000 H   0  0  0  0  0  0  0  0  0  0  0  0
    6.8862    1.2869    0.0000 H   0  0  0  0  0  0  0  0  0  0  0  0
    5.7101   -0.7500    0.0000 H   0  0  0  0  0  0  0  0  0  0  0  0
    6.3301   -1.3700    0.0000 H   0  0  0  0  0  0  0  0  0  0  0  0
    6.9501   -0.7500    0.0000 H   0  0  0  0  0  0  0  0  0  0  0  0
    2.3100    1.2869    0.0000 H   0  0  0  0  0  0  0  0  0  0  0  0
    1.4631    1.0600    0.0000 H   0  0  0  0  0  0  0  0  0  0  0  0
    1.6900    0.2131    0.0000 H   0  0  0  0  0  0  0  0  0  0  0  0
  1  6  2  0  0  0  0
  2  3  1  0  0  0  0
  2  4  1  0  0  0  0
  2 10  1  0  0  0  0
  2 11  1  0  0  0  0
  3  6  1  0  0  0  0
  3 12  1  0  0  0  0
  3 13  1  0  0  0  0
  4  5  2  0  0  0  0
  4 14  1  0  0  0  0
  5  7  1  0  0  0  0
  5  8  1  0  0  0  0
  6  9  1  0  0  0  0
  7 15  1  0  0  0  0
  7 16  1  0  0  0  0
  7 17  1  0  0  0  0
  8 18  1  0  0  0  0
  8 19  1  0  0  0  0
  8 20  1  0  0  0  0
  9 21  1  0  0  0  0
  9 22  1  0  0  0  0
  9 23  1  0  0  0  0
M  END
> <PUBCHEM_COMPOUND_CID>
9862

> <PUBCHEM_COMPOUND_CANONICALIZED>
1

> <PUBCHEM_CACTVS_COMPLEXITY>
119

> <PUBCHEM_CACTVS_HBOND_ACCEPTOR>
1

> <PUBCHEM_CACTVS_HBOND_DONOR>
0

> <PUBCHEM_CACTVS_ROTATABLE_BOND>
3

> <PUBCHEM_CACTVS_SUBSKEYS>
AAADccBwIAAAAAAAAAAAAAAAAAAAAAAAAAAAAAAAAAAAAAAAAAAAGgAAAAAADASAgAACAAAAAACIAqBSAAAAAAAgAAAACAEAAAgAABIAAQAAAAAAgAAIAAIAAAAAAAAAAAAAAAAAAAAAAAAAAAAAAAAAAA==

> <PUBCHEM_IUPAC_OPENEYE_NAME>
6-methylhept-5-en-2-one

> <PUBCHEM_IUPAC_CAS_NAME>
6-methyl-5-hepten-2-one

> <PUBCHEM_IUPAC_NAME>
6-methylhept-5-en-2-one

> <PUBCHEM_IUPAC_SYSTEMATIC_NAME>
6-methylhept-5-en-2-one

> <PUBCHEM_IUPAC_TRADITIONAL_NAME>
6-methylhept-5-en-2-one

> <PUBCHEM_IUPAC_INCHI>
InChI=1S/C8H14O/c1-7(2)5-4-6-8(3)9/h5H,4,6H2,1-3H3

> <PUBCHEM_IUPAC_INCHIKEY>
UHEPJGULSIKKTP-UHFFFAOYSA-N

> <PUBCHEM_XLOGP3>
1.9

> <PUBCHEM_EXACT_MASS>
126.104

> <PUBCHEM_MOLECULAR_FORMULA>
C8H14O

> <PUBCHEM_MOLECULAR_WEIGHT>
126.199

> <PUBCHEM_OPENEYE_CAN_SMILES>
CC(=CCCC(=O)C)C

> <PUBCHEM_OPENEYE_ISO_SMILES>
CC(=CCCC(=O)C)C

> <PUBCHEM_CACTVS_TPSA>
17.1

> <PUBCHEM_MONOISOTOPIC_WEIGHT>
126.104

> <PUBCHEM_TOTAL_CHARGE>
0

> <PUBCHEM_HEAVY_ATOM_COUNT>
9

> <PUBCHEM_ATOM_DEF_STEREO_COUNT>
0

> <PUBCHEM_ATOM_UDEF_STEREO_COUNT>
0

> <PUBCHEM_BOND_DEF_STEREO_COUNT>
0

> <PUBCHEM_BOND_UDEF_STEREO_COUNT>
0

> <PUBCHEM_ISOTOPIC_ATOM_COUNT>
0

> <PUBCHEM_COMPONENT_COUNT>
1

> <PUBCHEM_CACTVS_TAUTO_COUNT>
-1

> <PUBCHEM_COORDINATE_TYPE>
1
5
255

$$$$
3853254
  -OEChem-02201912152D

 24 25  0     1  0  0  0  0  0999 V2000
    5.5986   -0.0000    0.0000 O   0  0  0  0  0  0  0  0  0  0  0  0
    3.8660    2.0000    0.0000 O   0  0  0  0  0  0  0  0  0  0  0  0
    3.8660   -2.0000    0.0000 O   0  0  0  0  0  0  0  0  0  0  0  0
    4.7320    0.5000    0.0000 C   0  0  3  0  0  0  0  0  0  0  0  0
    4.7320   -0.5000    0.0000 C   0  0  3  0  0  0  0  0  0  0  0  0
    3.0000    0.5000    0.0000 C   0  0  0  0  0  0  0  0  0  0  0  0
    3.8660    1.0000    0.0000 C   0  0  0  0  0  0  0  0  0  0  0  0
    3.0000   -0.5000    0.0000 C   0  0  0  0  0  0  0  0  0  0  0  0
    3.8660   -1.0000    0.0000 C   0  0  0  0  0  0  0  0  0  0  0  0
    4.7320    1.5000    0.0000 C   0  0  0  0  0  0  0  0  0  0  0  0
    2.0000    0.5000    0.0000 C   0  0  0  0  0  0  0  0  0  0  0  0
    2.5000    1.3660    0.0000 C   0  0  0  0  0  0  0  0  0  0  0  0
    5.1570   -1.2362    0.0000 H   0  0  0  0  0  0  0  0  0  0  0  0
    2.3894   -0.3923    0.0000 H   0  0  0  0  0  0  0  0  0  0  0  0
    2.7880   -1.0826    0.0000 H   0  0  0  0  0  0  0  0  0  0  0  0
    5.3520    1.5000    0.0000 H   0  0  0  0  0  0  0  0  0  0  0  0
    4.7320    2.1200    0.0000 H   0  0  0  0  0  0  0  0  0  0  0  0
    4.1120    1.5000    0.0000 H   0  0  0  0  0  0  0  0  0  0  0  0
    3.0369    1.6760    0.0000 H   0  0  0  0  0  0  0  0  0  0  0  0
    2.1900    1.9030    0.0000 H   0  0  0  0  0  0  0  0  0  0  0  0
    1.9631    1.0560    0.0000 H   0  0  0  0  0  0  0  0  0  0  0  0
    2.0000    1.1200    0.0000 H   0  0  0  0  0  0  0  0  0  0  0  0
    1.3800    0.5000    0.0000 H   0  0  0  0  0  0  0  0  0  0  0  0
    2.0000   -0.1200    0.0000 H   0  0  0  0  0  0  0  0  0  0  0  0
  1  4  1  0  0  0  0
  1  5  1  0  0  0  0
  2  7  2  0  0  0  0
  3  9  2  0  0  0  0
  4  5  1  0  0  0  0
  4  7  1  0  0  0  0
  4 10  1  0  0  0  0
  5  9  1  0  0  0  0
  5 13  1  0  0  0  0
  6  7  1  0  0  0  0
  6  8  1  0  0  0  0
  6 11  1  0  0  0  0
  6 12  1  0  0  0  0
  8  9  1  0  0  0  0
  8 14  1  0  0  0  0
  8 15  1  0  0  0  0
 10 16  1  0  0  0  0
 10 17  1  0  0  0  0
 10 18  1  0  0  0  0
 11 22  1  0  0  0  0
 11 23  1  0  0  0  0
 11 24  1  0  0  0  0
 12 19  1  0  0  0  0
 12 20  1  0  0  0  0
 12 21  1  0  0  0  0
M  END
> <PUBCHEM_COMPOUND_CID>
3853254

> <PUBCHEM_COMPOUND_CANONICALIZED>
1

> <PUBCHEM_CACTVS_COMPLEXITY>
280

> <PUBCHEM_CACTVS_HBOND_ACCEPTOR>
3

> <PUBCHEM_CACTVS_HBOND_DONOR>
0

> <PUBCHEM_CACTVS_ROTATABLE_BOND>
0

> <PUBCHEM_CACTVS_SUBSKEYS>
AAADccBwMAAAAAAAAAAAAAAAEgAAAAAAAAAwAAAABIAAAAAAAAAAGgAAAAAADlSggAICAAAABAAIAIAQAAIAAAAAAAAAAAFAAAAAABYAAAQCAAAEIAAAAAGJzHDPAAAAAAAAAABAAAYAABAAAAAAAAAAAA==

> <PUBCHEM_IUPAC_OPENEYE_NAME>
1,3,3-trimethyl-7-oxabicyclo[4.1.0]heptane-2,5-dione

> <PUBCHEM_IUPAC_CAS_NAME>
1,3,3-trimethyl-7-oxabicyclo[4.1.0]heptane-2,5-dione

> <PUBCHEM_IUPAC_NAME>
1,3,3-trimethyl-7-oxabicyclo[4.1.0]heptane-2,5-dione

> <PUBCHEM_IUPAC_SYSTEMATIC_NAME>
1,3,3-trimethyl-7-oxabicyclo[4.1.0]heptane-2,5-dione

> <PUBCHEM_IUPAC_TRADITIONAL_NAME>
1,3,3-trimethyl-7-oxabicyclo[4.1.0]heptane-2,5-quinone

> <PUBCHEM_IUPAC_INCHI>
InChI=1S/C9H12O3/c1-8(2)4-5(10)6-9(3,12-6)7(8)11/h6H,4H2,1-3H3

> <PUBCHEM_IUPAC_INCHIKEY>
VOFRQXZPJRQJIW-UHFFFAOYSA-N

> <PUBCHEM_XLOGP3_AA>
0.4

> <PUBCHEM_EXACT_MASS>
168.079

> <PUBCHEM_MOLECULAR_FORMULA>
C9H12O3

> <PUBCHEM_MOLECULAR_WEIGHT>
168.192

> <PUBCHEM_OPENEYE_CAN_SMILES>
CC1(CC(=O)C2C(C1=O)(O2)C)C

> <PUBCHEM_OPENEYE_ISO_SMILES>
CC1(CC(=O)C2C(C1=O)(O2)C)C

> <PUBCHEM_CACTVS_TPSA>
46.7

> <PUBCHEM_MONOISOTOPIC_WEIGHT>
168.079

> <PUBCHEM_TOTAL_CHARGE>
0

> <PUBCHEM_HEAVY_ATOM_COUNT>
12

> <PUBCHEM_ATOM_DEF_STEREO_COUNT>
0

> <PUBCHEM_ATOM_UDEF_STEREO_COUNT>
2

> <PUBCHEM_BOND_DEF_STEREO_COUNT>
0

> <PUBCHEM_BOND_UDEF_STEREO_COUNT>
0

> <PUBCHEM_ISOTOPIC_ATOM_COUNT>
0

> <PUBCHEM_COMPONENT_COUNT>
1

> <PUBCHEM_CACTVS_TAUTO_COUNT>
-1

> <PUBCHEM_COORDINATE_TYPE>
1
5
255

> <PUBCHEM_BONDANNOTATIONS>
4  10  3
5  13  3

$$$$
1549778
  -OEChem-02201912152D

 36 35  0     0  0  0  0  0  0999 V2000
    2.8660   -1.0600    0.0000 O   0  0  0  0  0  0  0  0  0  0  0  0
    7.1962    0.4400    0.0000 C   0  0  0  0  0  0  0  0  0  0  0  0
    6.3301   -0.0600    0.0000 C   0  0  0  0  0  0  0  0  0  0  0  0
    8.0622   -0.0600    0.0000 C   0  0  0  0  0  0  0  0  0  0  0  0
    4.5981   -0.0600    0.0000 C   0  0  0  0  0  0  0  0  0  0  0  0
    5.4641    0.4400    0.0000 C   0  0  0  0  0  0  0  0  0  0  0  0
    3.7320    0.4400    0.0000 C   0  0  0  0  0  0  0  0  0  0  0  0
    8.9282    0.4400    0.0000 C   0  0  0  0  0  0  0  0  0  0  0  0
    6.3301   -1.0600    0.0000 C   0  0  0  0  0  0  0  0  0  0  0  0
    9.7942   -0.0600    0.0000 C   0  0  0  0  0  0  0  0  0  0  0  0
    2.8660   -0.0600    0.0000 C   0  0  0  0  0  0  0  0  0  0  0  0
   10.6603    0.4400    0.0000 C   0  0  0  0  0  0  0  0  0  0  0  0
    9.7942   -1.0600    0.0000 C   0  0  0  0  0  0  0  0  0  0  0  0
    2.0000    0.4400    0.0000 C   0  0  0  0  0  0  0  0  0  0  0  0
    7.5947    0.9149    0.0000 H   0  0  0  0  0  0  0  0  0  0  0  0
    6.7976    0.9149    0.0000 H   0  0  0  0  0  0  0  0  0  0  0  0
    7.6636   -0.5349    0.0000 H   0  0  0  0  0  0  0  0  0  0  0  0
    8.4607   -0.5349    0.0000 H   0  0  0  0  0  0  0  0  0  0  0  0
    4.1996   -0.5349    0.0000 H   0  0  0  0  0  0  0  0  0  0  0  0
    4.9966   -0.5349    0.0000 H   0  0  0  0  0  0  0  0  0  0  0  0
    5.4641    1.0600    0.0000 H   0  0  0  0  0  0  0  0  0  0  0  0
    4.1306    0.9149    0.0000 H   0  0  0  0  0  0  0  0  0  0  0  0
    3.3335    0.9149    0.0000 H   0  0  0  0  0  0  0  0  0  0  0  0
    8.9282    1.0600    0.0000 H   0  0  0  0  0  0  0  0  0  0  0  0
    5.7101   -1.0600    0.0000 H   0  0  0  0  0  0  0  0  0  0  0  0
    6.3301   -1.6800    0.0000 H   0  0  0  0  0  0  0  0  0  0  0  0
    6.9501   -1.0600    0.0000 H   0  0  0  0  0  0  0  0  0  0  0  0
    9.1742   -1.0600    0.0000 H   0  0  0  0  0  0  0  0  0  0  0  0
   10.9703   -0.0969    0.0000 H   0  0  0  0  0  0  0  0  0  0  0  0
   11.1972    0.7500    0.0000 H   0  0  0  0  0  0  0  0  0  0  0  0
   10.3503    0.9769    0.0000 H   0  0  0  0  0  0  0  0  0  0  0  0
    9.7942   -1.6800    0.0000 H   0  0  0  0  0  0  0  0  0  0  0  0
   10.4142   -1.0600    0.0000 H   0  0  0  0  0  0  0  0  0  0  0  0
    2.3100    0.9769    0.0000 H   0  0  0  0  0  0  0  0  0  0  0  0
    1.4631    0.7500    0.0000 H   0  0  0  0  0  0  0  0  0  0  0  0
    1.6900   -0.0969    0.0000 H   0  0  0  0  0  0  0  0  0  0  0  0
  1 11  2  0  0  0  0
  2  3  1  0  0  0  0
  2  4  1  0  0  0  0
  2 15  1  0  0  0  0
  2 16  1  0  0  0  0
  3  6  2  0  0  0  0
  3  9  1  0  0  0  0
  4  8  1  0  0  0  0
  4 17  1  0  0  0  0
  4 18  1  0  0  0  0
  5  6  1  0  0  0  0
  5  7  1  0  0  0  0
  5 19  1  0  0  0  0
  5 20  1  0  0  0  0
  6 21  1  0  0  0  0
  7 11  1  0  0  0  0
  7 22  1  0  0  0  0
  7 23  1  0  0  0  0
  8 10  2  0  0  0  0
  8 24  1  0  0  0  0
  9 25  1  0  0  0  0
  9 26  1  0  0  0  0
  9 27  1  0  0  0  0
 10 12  1  0  0  0  0
 10 13  1  0  0  0  0
 11 14  1  0  0  0  0
 12 29  1  0  0  0  0
 12 30  1  0  0  0  0
 12 31  1  0  0  0  0
 13 28  1  0  0  0  0
 13 32  1  0  0  0  0
 13 33  1  0  0  0  0
 14 34  1  0  0  0  0
 14 35  1  0  0  0  0
 14 36  1  0  0  0  0
M  END
> <PUBCHEM_COMPOUND_CID>
1549778

> <PUBCHEM_COMPOUND_CANONICALIZED>
1

> <PUBCHEM_CACTVS_COMPLEXITY>
230

> <PUBCHEM_CACTVS_HBOND_ACCEPTOR>
1

> <PUBCHEM_CACTVS_HBOND_DONOR>
0

> <PUBCHEM_CACTVS_ROTATABLE_BOND>
6

> <PUBCHEM_CACTVS_SUBSKEYS>
AAADceBwIAAAAAAAAAAAAAAAAAAAAAAAAAAAAAAAAAAAAAAAAAAAGgAAAAAADASAgAACAAAAAACIAqBSAAAAAAAgAAAACAEAAAgAABIAAQAAAAAAgAAIAAIAAAAAAAAAAAAAAAAAAAAAAAAAAAAAAAAAAA==

> <PUBCHEM_IUPAC_OPENEYE_NAME>
(5~{E})-6,10-dimethylundeca-5,9-dien-2-one

> <PUBCHEM_IUPAC_CAS_NAME>
(5~{E})-6,10-dimethyl-2-undeca-5,9-dienone

> <PUBCHEM_IUPAC_NAME>
(5~{E})-6,10-dimethylundeca-5,9-dien-2-one

> <PUBCHEM_IUPAC_SYSTEMATIC_NAME>
(5~{E})-6,10-dimethylundeca-5,9-dien-2-one

> <PUBCHEM_IUPAC_TRADITIONAL_NAME>
(5~{E})-6,10-dimethylundeca-5,9-dien-2-one

> <PUBCHEM_IUPAC_INCHI>
InChI=1S/C13H22O/c1-11(2)7-5-8-12(3)9-6-10-13(4)14/h7,9H,5-6,8,10H2,1-4H3/b12-9+

> <PUBCHEM_IUPAC_INCHIKEY>
HNZUNIKWNYHEJJ-FMIVXFBMSA-N

> <PUBCHEM_XLOGP3_AA>
3.7

> <PUBCHEM_EXACT_MASS>
194.167

> <PUBCHEM_MOLECULAR_FORMULA>
C13H22O

> <PUBCHEM_MOLECULAR_WEIGHT>
194.318

> <PUBCHEM_OPENEYE_CAN_SMILES>
CC(=CCCC(=CCCC(=O)C)C)C

> <PUBCHEM_OPENEYE_ISO_SMILES>
CC(=CCC/C(=C/CCC(=O)C)/C)C

> <PUBCHEM_CACTVS_TPSA>
17.1

> <PUBCHEM_MONOISOTOPIC_WEIGHT>
194.167

> <PUBCHEM_TOTAL_CHARGE>
0

> <PUBCHEM_HEAVY_ATOM_COUNT>
14

> <PUBCHEM_ATOM_DEF_STEREO_COUNT>
0

> <PUBCHEM_ATOM_UDEF_STEREO_COUNT>
0

> <PUBCHEM_BOND_DEF_STEREO_COUNT>
1

> <PUBCHEM_BOND_UDEF_STEREO_COUNT>
0

> <PUBCHEM_ISOTOPIC_ATOM_COUNT>
0

> <PUBCHEM_COMPONENT_COUNT>
1

> <PUBCHEM_CACTVS_TAUTO_COUNT>
3

> <PUBCHEM_COORDINATE_TYPE>
1
5
255

$$$$
6427110
  -OEChem-02201912152D

 29 28  0     0  0  0  0  0  0999 V2000
    5.4641    0.4400    0.0000 C   0  0  0  0  0  0  0  0  0  0  0  0
    6.3301   -0.0600    0.0000 C   0  0  0  0  0  0  0  0  0  0  0  0
    4.5981   -0.0600    0.0000 C   0  0  0  0  0  0  0  0  0  0  0  0
    7.1962    0.4400    0.0000 C   0  0  0  0  0  0  0  0  0  0  0  0
    8.0622   -0.0600    0.0000 C   0  0  0  0  0  0  0  0  0  0  0  0
    4.5981   -1.0600    0.0000 C   0  0  0  0  0  0  0  0  0  0  0  0
    3.7320    0.4400    0.0000 C   0  0  0  0  0  0  0  0  0  0  0  0
    8.9282    0.4400    0.0000 C   0  0  0  0  0  0  0  0  0  0  0  0
    8.0622   -1.0600    0.0000 C   0  0  0  0  0  0  0  0  0  0  0  0
    2.8660   -0.0600    0.0000 C   0  0  0  0  0  0  0  0  0  0  0  0
    2.0000    0.4400    0.0000 C   0  0  0  0  0  0  0  0  0  0  0  0
    5.8626    0.9149    0.0000 H   0  0  0  0  0  0  0  0  0  0  0  0
    5.0656    0.9149    0.0000 H   0  0  0  0  0  0  0  0  0  0  0  0
    5.9316   -0.5349    0.0000 H   0  0  0  0  0  0  0  0  0  0  0  0
    6.7287   -0.5349    0.0000 H   0  0  0  0  0  0  0  0  0  0  0  0
    7.1962    1.0600    0.0000 H   0  0  0  0  0  0  0  0  0  0  0  0
    3.9781   -1.0600    0.0000 H   0  0  0  0  0  0  0  0  0  0  0  0
    4.5981   -1.6800    0.0000 H   0  0  0  0  0  0  0  0  0  0  0  0
    5.2181   -1.0600    0.0000 H   0  0  0  0  0  0  0  0  0  0  0  0
    3.7320    1.0600    0.0000 H   0  0  0  0  0  0  0  0  0  0  0  0
    9.2382   -0.0969    0.0000 H   0  0  0  0  0  0  0  0  0  0  0  0
    9.4651    0.7500    0.0000 H   0  0  0  0  0  0  0  0  0  0  0  0
    8.6182    0.9769    0.0000 H   0  0  0  0  0  0  0  0  0  0  0  0
    7.4422   -1.0600    0.0000 H   0  0  0  0  0  0  0  0  0  0  0  0
    8.0622   -1.6800    0.0000 H   0  0  0  0  0  0  0  0  0  0  0  0
    8.6822   -1.0600    0.0000 H   0  0  0  0  0  0  0  0  0  0  0  0
    2.8660   -0.6800    0.0000 H   0  0  0  0  0  0  0  0  0  0  0  0
    2.0000    1.0600    0.0000 H   0  0  0  0  0  0  0  0  0  0  0  0
    1.4631    0.1300    0.0000 H   0  0  0  0  0  0  0  0  0  0  0  0
  1  2  1  0  0  0  0
  1  3  1  0  0  0  0
  1 12  1  0  0  0  0
  1 13  1  0  0  0  0
  2  4  1  0  0  0  0
  2 14  1  0  0  0  0
  2 15  1  0  0  0  0
  3  6  1  0  0  0  0
  3  7  2  0  0  0  0
  4  5  2  0  0  0  0
  4 16  1  0  0  0  0
  5  8  1  0  0  0  0
  5  9  1  0  0  0  0
  6 17  1  0  0  0  0
  6 18  1  0  0  0  0
  6 19  1  0  0  0  0
  7 10  1  0  0  0  0
  7 20  1  0  0  0  0
  8 21  1  0  0  0  0
  8 22  1  0  0  0  0
  8 23  1  0  0  0  0
  9 24  1  0  0  0  0
  9 25  1  0  0  0  0
  9 26  1  0  0  0  0
 10 11  2  0  0  0  0
 10 27  1  0  0  0  0
 11 28  1  0  0  0  0
 11 29  1  0  0  0  0
M  END
> <PUBCHEM_COMPOUND_CID>
6427110

> <PUBCHEM_COMPOUND_CANONICALIZED>
1

> <PUBCHEM_CACTVS_COMPLEXITY>
167

> <PUBCHEM_CACTVS_HBOND_ACCEPTOR>
0

> <PUBCHEM_CACTVS_HBOND_DONOR>
0

> <PUBCHEM_CACTVS_ROTATABLE_BOND>
4

> <PUBCHEM_CACTVS_SUBSKEYS>
AAADceBwAAAAAAAAAAAAAAAAAAAAAAAAAAAAAAAAAAAAAAAAAAAAGAAAAAAADACAAAACAAAAAACAAiBCAAAAAAAgAAAICAAAAAgIAAIAAQAAAAAAgAAIgAIAAAAAAAAAAAAAAAAAAAAAAAAAAAAAAAAAAA==

> <PUBCHEM_IUPAC_OPENEYE_NAME>
(3~{E})-4,8-dimethylnona-1,3,7-triene

> <PUBCHEM_IUPAC_CAS_NAME>
(3~{E})-4,8-dimethylnona-1,3,7-triene

> <PUBCHEM_IUPAC_NAME>
(3~{E})-4,8-dimethylnona-1,3,7-triene

> <PUBCHEM_IUPAC_SYSTEMATIC_NAME>
(3~{E})-4,8-dimethylnona-1,3,7-triene

> <PUBCHEM_IUPAC_TRADITIONAL_NAME>
(3~{E})-4,8-dimethylnona-1,3,7-triene

> <PUBCHEM_IUPAC_INCHI>
InChI=1S/C11H18/c1-5-7-11(4)9-6-8-10(2)3/h5,7-8H,1,6,9H2,2-4H3/b11-7+

> <PUBCHEM_IUPAC_INCHIKEY>
LUKZREJJLWEWQM-YRNVUSSQSA-N

> <PUBCHEM_XLOGP3_AA>
4.6

> <PUBCHEM_EXACT_MASS>
150.141

> <PUBCHEM_MOLECULAR_FORMULA>
C11H18

> <PUBCHEM_MOLECULAR_WEIGHT>
150.265

> <PUBCHEM_OPENEYE_CAN_SMILES>
CC(=CCCC(=CC=C)C)C

> <PUBCHEM_OPENEYE_ISO_SMILES>
CC(=CCC/C(=C/C=C)/C)C

> <PUBCHEM_CACTVS_TPSA>
0

> <PUBCHEM_MONOISOTOPIC_WEIGHT>
150.141

> <PUBCHEM_TOTAL_CHARGE>
0

> <PUBCHEM_HEAVY_ATOM_COUNT>
11

> <PUBCHEM_ATOM_DEF_STEREO_COUNT>
0

> <PUBCHEM_ATOM_UDEF_STEREO_COUNT>
0

> <PUBCHEM_BOND_DEF_STEREO_COUNT>
1

> <PUBCHEM_BOND_UDEF_STEREO_COUNT>
0

> <PUBCHEM_ISOTOPIC_ATOM_COUNT>
0

> <PUBCHEM_COMPONENT_COUNT>
1

> <PUBCHEM_CACTVS_TAUTO_COUNT>
1

> <PUBCHEM_COORDINATE_TYPE>
1
5
255

$$$$
12589924
  -OEChem-02201912152D

 29 28  0     0  0  0  0  0  0999 V2000
    4.5981    0.0000    0.0000 C   0  0  0  0  0  0  0  0  0  0  0  0
    5.4641   -0.5000    0.0000 C   0  0  0  0  0  0  0  0  0  0  0  0
    3.7320   -0.5000    0.0000 C   0  0  0  0  0  0  0  0  0  0  0  0
    6.3301    0.0000    0.0000 C   0  0  0  0  0  0  0  0  0  0  0  0
    7.1962   -0.5000    0.0000 C   0  0  0  0  0  0  0  0  0  0  0  0
    3.7320   -1.5000    0.0000 C   0  0  0  0  0  0  0  0  0  0  0  0
    2.8660    0.0000    0.0000 C   0  0  0  0  0  0  0  0  0  0  0  0
    8.0622   -0.0000    0.0000 C   0  0  0  0  0  0  0  0  0  0  0  0
    7.1962   -1.5000    0.0000 C   0  0  0  0  0  0  0  0  0  0  0  0
    2.8660    1.0000    0.0000 C   0  0  0  0  0  0  0  0  0  0  0  0
    2.0000    1.5000    0.0000 C   0  0  0  0  0  0  0  0  0  0  0  0
    4.9966    0.4749    0.0000 H   0  0  0  0  0  0  0  0  0  0  0  0
    4.1996    0.4749    0.0000 H   0  0  0  0  0  0  0  0  0  0  0  0
    5.0656   -0.9749    0.0000 H   0  0  0  0  0  0  0  0  0  0  0  0
    5.8626   -0.9749    0.0000 H   0  0  0  0  0  0  0  0  0  0  0  0
    6.3301    0.6200    0.0000 H   0  0  0  0  0  0  0  0  0  0  0  0
    3.1120   -1.5000    0.0000 H   0  0  0  0  0  0  0  0  0  0  0  0
    3.7320   -2.1200    0.0000 H   0  0  0  0  0  0  0  0  0  0  0  0
    4.3520   -1.5000    0.0000 H   0  0  0  0  0  0  0  0  0  0  0  0
    2.3291   -0.3100    0.0000 H   0  0  0  0  0  0  0  0  0  0  0  0
    8.3722   -0.5369    0.0000 H   0  0  0  0  0  0  0  0  0  0  0  0
    8.5991    0.3100    0.0000 H   0  0  0  0  0  0  0  0  0  0  0  0
    7.7522    0.5369    0.0000 H   0  0  0  0  0  0  0  0  0  0  0  0
    6.5762   -1.5000    0.0000 H   0  0  0  0  0  0  0  0  0  0  0  0
    7.1962   -2.1200    0.0000 H   0  0  0  0  0  0  0  0  0  0  0  0
    7.8162   -1.5000    0.0000 H   0  0  0  0  0  0  0  0  0  0  0  0
    3.4030    1.3100    0.0000 H   0  0  0  0  0  0  0  0  0  0  0  0
    2.0000    2.1200    0.0000 H   0  0  0  0  0  0  0  0  0  0  0  0
    1.4631    1.1900    0.0000 H   0  0  0  0  0  0  0  0  0  0  0  0
  1  2  1  0  0  0  0
  1  3  1  0  0  0  0
  1 12  1  0  0  0  0
  1 13  1  0  0  0  0
  2  4  1  0  0  0  0
  2 14  1  0  0  0  0
  2 15  1  0  0  0  0
  3  6  1  0  0  0  0
  3  7  2  0  0  0  0
  4  5  2  0  0  0  0
  4 16  1  0  0  0  0
  5  8  1  0  0  0  0
  5  9  1  0  0  0  0
  6 17  1  0  0  0  0
  6 18  1  0  0  0  0
  6 19  1  0  0  0  0
  7 10  1  0  0  0  0
  7 20  1  0  0  0  0
  8 21  1  0  0  0  0
  8 22  1  0  0  0  0
  8 23  1  0  0  0  0
  9 24  1  0  0  0  0
  9 25  1  0  0  0  0
  9 26  1  0  0  0  0
 10 11  2  0  0  0  0
 10 27  1  0  0  0  0
 11 28  1  0  0  0  0
 11 29  1  0  0  0  0
M  END
> <PUBCHEM_COMPOUND_CID>
12589924

> <PUBCHEM_COMPOUND_CANONICALIZED>
1

> <PUBCHEM_CACTVS_COMPLEXITY>
167

> <PUBCHEM_CACTVS_HBOND_ACCEPTOR>
0

> <PUBCHEM_CACTVS_HBOND_DONOR>
0

> <PUBCHEM_CACTVS_ROTATABLE_BOND>
4

> <PUBCHEM_CACTVS_SUBSKEYS>
AAADceBwAAAAAAAAAAAAAAAAAAAAAAAAAAAAAAAAAAAAAAAAAAAAGAAAAAAADACAAAACAAAAAACAAiBCAAAAAAAgAAAICAAAAAgIAAIAAQAAAAAAgAAIgAIAAAAAAAAAAAAAAAAAAAAAAAAAAAAAAAAAAA==

> <PUBCHEM_IUPAC_OPENEYE_NAME>
(3~{Z})-4,8-dimethylnona-1,3,7-triene

> <PUBCHEM_IUPAC_CAS_NAME>
(3~{Z})-4,8-dimethylnona-1,3,7-triene

> <PUBCHEM_IUPAC_NAME>
(3~{Z})-4,8-dimethylnona-1,3,7-triene

> <PUBCHEM_IUPAC_SYSTEMATIC_NAME>
(3~{Z})-4,8-dimethylnona-1,3,7-triene

> <PUBCHEM_IUPAC_TRADITIONAL_NAME>
(3~{Z})-4,8-dimethylnona-1,3,7-triene

> <PUBCHEM_IUPAC_INCHI>
InChI=1S/C11H18/c1-5-7-11(4)9-6-8-10(2)3/h5,7-8H,1,6,9H2,2-4H3/b11-7-

> <PUBCHEM_IUPAC_INCHIKEY>
LUKZREJJLWEWQM-XFFZJAGNSA-N

> <PUBCHEM_XLOGP3_AA>
4.6

> <PUBCHEM_EXACT_MASS>
150.141

> <PUBCHEM_MOLECULAR_FORMULA>
C11H18

> <PUBCHEM_MOLECULAR_WEIGHT>
150.265

> <PUBCHEM_OPENEYE_CAN_SMILES>
CC(=CCCC(=CC=C)C)C

> <PUBCHEM_OPENEYE_ISO_SMILES>
CC(=CCC/C(=C\C=C)/C)C

> <PUBCHEM_CACTVS_TPSA>
0

> <PUBCHEM_MONOISOTOPIC_WEIGHT>
150.141

> <PUBCHEM_TOTAL_CHARGE>
0

> <PUBCHEM_HEAVY_ATOM_COUNT>
11

> <PUBCHEM_ATOM_DEF_STEREO_COUNT>
0

> <PUBCHEM_ATOM_UDEF_STEREO_COUNT>
0

> <PUBCHEM_BOND_DEF_STEREO_COUNT>
1

> <PUBCHEM_BOND_UDEF_STEREO_COUNT>
0

> <PUBCHEM_ISOTOPIC_ATOM_COUNT>
0

> <PUBCHEM_COMPONENT_COUNT>
1

> <PUBCHEM_CACTVS_TAUTO_COUNT>
-1

> <PUBCHEM_COORDINATE_TYPE>
1
5
255

$$$$
91749831
  -OEChem-02201912152D

 39 41  0     1  0  0  0  0  0999 V2000
    3.8915    0.1079    0.0000 C   0  0  2  0  0  0  0  0  0  0  0  0
    4.7005    0.6957    0.0000 C   0  0  1  0  0  0  0  0  0  0  0  0
    3.0825    0.6957    0.0000 C   0  0  2  0  0  0  0  0  0  0  0  0
    3.5819   -0.8367    0.0000 C   0  0  1  0  0  0  0  0  0  0  0  0
    4.2012   -0.8367    0.0000 C   0  0  0  0  0  0  0  0  0  0  0  0
    5.5032    0.1093    0.0000 C   0  0  2  0  0  0  0  0  0  0  0  0
    4.3915    1.6468    0.0000 C   0  0  0  0  0  0  0  0  0  0  0  0
    3.3915    1.6468    0.0000 C   0  0  0  0  0  0  0  0  0  0  0  0
    5.1952   -0.8359    0.0000 C   0  0  0  0  0  0  0  0  0  0  0  0
    2.2798    0.1093    0.0000 C   0  0  0  0  0  0  0  0  0  0  0  0
    2.5878   -0.8359    0.0000 C   0  0  0  0  0  0  0  0  0  0  0  0
    2.2735    1.2835    0.0000 C   0  0  0  0  0  0  0  0  0  0  0  0
    4.1682   -1.6468    0.0000 C   0  0  0  0  0  0  0  0  0  0  0  0
    6.4548    0.4167    0.0000 C   0  0  0  0  0  0  0  0  0  0  0  0
    2.0000   -1.6449    0.0000 C   0  0  0  0  0  0  0  0  0  0  0  0
    5.3888    1.1944    0.0000 H   0  0  0  0  0  0  0  0  0  0  0  0
    3.2997   -1.3888    0.0000 H   0  0  0  0  0  0  0  0  0  0  0  0
    3.5950   -0.9668    0.0000 H   0  0  0  0  0  0  0  0  0  0  0  0
    4.2668   -1.4532    0.0000 H   0  0  0  0  0  0  0  0  0  0  0  0
    5.6015    0.7215    0.0000 H   0  0  0  0  0  0  0  0  0  0  0  0
    4.9980    1.7757    0.0000 H   0  0  0  0  0  0  0  0  0  0  0  0
    4.3267    2.2634    0.0000 H   0  0  0  0  0  0  0  0  0  0  0  0
    3.4563    2.2634    0.0000 H   0  0  0  0  0  0  0  0  0  0  0  0
    2.7850    1.7757    0.0000 H   0  0  0  0  0  0  0  0  0  0  0  0
    5.1306   -1.4525    0.0000 H   0  0  0  0  0  0  0  0  0  0  0  0
    5.8016   -0.9649    0.0000 H   0  0  0  0  0  0  0  0  0  0  0  0
    1.6898    0.2999    0.0000 H   0  0  0  0  0  0  0  0  0  0  0  0
    2.6379    1.7851    0.0000 H   0  0  0  0  0  0  0  0  0  0  0  0
    1.7719    1.6479    0.0000 H   0  0  0  0  0  0  0  0  0  0  0  0
    1.9090    0.7819    0.0000 H   0  0  0  0  0  0  0  0  0  0  0  0
    3.6660   -2.0103    0.0000 H   0  0  0  0  0  0  0  0  0  0  0  0
    4.5318   -2.1490    0.0000 H   0  0  0  0  0  0  0  0  0  0  0  0
    4.6705   -1.2832    0.0000 H   0  0  0  0  0  0  0  0  0  0  0  0
    6.6454   -0.1733    0.0000 H   0  0  0  0  0  0  0  0  0  0  0  0
    7.0448    0.6072    0.0000 H   0  0  0  0  0  0  0  0  0  0  0  0
    6.2642    1.0067    0.0000 H   0  0  0  0  0  0  0  0  0  0  0  0
    1.4984   -1.2804    0.0000 H   0  0  0  0  0  0  0  0  0  0  0  0
    1.6356   -2.1465    0.0000 H   0  0  0  0  0  0  0  0  0  0  0  0
    2.5016   -2.0093    0.0000 H   0  0  0  0  0  0  0  0  0  0  0  0
  1  2  1  0  0  0  0
  1  3  1  0  0  0  0
  1  4  1  0  0  0  0
  1  5  1  6  0  0  0
  2  6  1  0  0  0  0
  2  7  1  0  0  0  0
  2 16  1  1  0  0  0
  3  8  1  0  0  0  0
  3 10  1  0  0  0  0
  3 12  1  6  0  0  0
  4 11  1  0  0  0  0
  4 13  1  6  0  0  0
  4 17  1  0  0  0  0
  5  9  1  0  0  0  0
  5 18  1  0  0  0  0
  5 19  1  0  0  0  0
  6  9  1  0  0  0  0
  6 14  1  1  0  0  0
  6 20  1  0  0  0  0
  7  8  1  0  0  0  0
  7 21  1  0  0  0  0
  7 22  1  0  0  0  0
  8 23  1  0  0  0  0
  8 24  1  0  0  0  0
  9 25  1  0  0  0  0
  9 26  1  0  0  0  0
 10 11  2  0  0  0  0
 10 27  1  0  0  0  0
 11 15  1  0  0  0  0
 12 28  1  0  0  0  0
 12 29  1  0  0  0  0
 12 30  1  0  0  0  0
 13 31  1  0  0  0  0
 13 32  1  0  0  0  0
 13 33  1  0  0  0  0
 14 34  1  0  0  0  0
 14 35  1  0  0  0  0
 14 36  1  0  0  0  0
 15 37  1  0  0  0  0
 15 38  1  0  0  0  0
 15 39  1  0  0  0  0
M  END
> <PUBCHEM_COMPOUND_CID>
91749831

> <PUBCHEM_COMPOUND_CANONICALIZED>
1

> <PUBCHEM_CACTVS_COMPLEXITY>
327

> <PUBCHEM_CACTVS_HBOND_ACCEPTOR>
0

> <PUBCHEM_CACTVS_HBOND_DONOR>
0

> <PUBCHEM_CACTVS_ROTATABLE_BOND>
0

> <PUBCHEM_CACTVS_SUBSKEYS>
AAADceBwAAAAAAAAAAAAAAAAAAAAAYMEAAAAAAAAAAAYIAAAAAAAGAAAAAAADwCAAAACAAAAAACAAiBCAAAAAAAgAAAACAAAAAgAAAIAAQAAAAAAgAAIAAMAgMAPgAAAAAAAAAAAAAAAAAAAAQAACAAAAA==

> <PUBCHEM_IUPAC_OPENEYE_NAME>
(1~{S},2~{R},5~{R},8~{R},9~{S})-2,3,5,9-tetramethyltricyclo[6.3.0.0^{1,5}]undec-3-ene

> <PUBCHEM_IUPAC_CAS_NAME>
(1~{S},2~{R},5~{R},8~{R},9~{S})-2,3,5,9-tetramethyltricyclo[6.3.0.0^{1,5}]undec-3-ene

> <PUBCHEM_IUPAC_NAME>
(1~{S},2~{R},5~{R},8~{R},9~{S})-2,3,5,9-tetramethyltricyclo[6.3.0.0^{1,5}]undec-3-ene

> <PUBCHEM_IUPAC_SYSTEMATIC_NAME>
(1~{S},2~{R},5~{R},8~{R},9~{S})-2,3,5,9-tetramethyltricyclo[6.3.0.0^{1,5}]undec-3-ene

> <PUBCHEM_IUPAC_TRADITIONAL_NAME>
(1~{S},2~{R},5~{R},8~{R},9~{S})-2,3,5,9-tetramethyltricyclo[6.3.0.0^{1,5}]undec-3-ene

> <PUBCHEM_IUPAC_INCHI>
InChI=1S/C15H24/c1-10-5-8-15-12(3)11(2)9-14(15,4)7-6-13(10)15/h9-10,12-13H,5-8H2,1-4H3/t10-,12+,13+,14+,15+/m0/s1

> <PUBCHEM_IUPAC_INCHIKEY>
OVRIZVNVMIWWMN-URWOTSEESA-N

> <PUBCHEM_XLOGP3_AA>
4.8

> <PUBCHEM_EXACT_MASS>
204.188

> <PUBCHEM_MOLECULAR_FORMULA>
C15H24

> <PUBCHEM_MOLECULAR_WEIGHT>
204.357

> <PUBCHEM_OPENEYE_CAN_SMILES>
CC1CCC23C1CCC2(C=C(C3C)C)C

> <PUBCHEM_OPENEYE_ISO_SMILES>
C[C@H]1CC[C@@]23[C@@H]1CC[C@@]2(C=C([C@H]3C)C)C

> <PUBCHEM_CACTVS_TPSA>
0

> <PUBCHEM_MONOISOTOPIC_WEIGHT>
204.188

> <PUBCHEM_TOTAL_CHARGE>
0

> <PUBCHEM_HEAVY_ATOM_COUNT>
15

> <PUBCHEM_ATOM_DEF_STEREO_COUNT>
5

> <PUBCHEM_ATOM_UDEF_STEREO_COUNT>
0

> <PUBCHEM_BOND_DEF_STEREO_COUNT>
0

> <PUBCHEM_BOND_UDEF_STEREO_COUNT>
0

> <PUBCHEM_ISOTOPIC_ATOM_COUNT>
0

> <PUBCHEM_COMPONENT_COUNT>
1

> <PUBCHEM_CACTVS_TAUTO_COUNT>
-1

> <PUBCHEM_COORDINATE_TYPE>
1
5
255

> <PUBCHEM_BONDANNOTATIONS>
1  5  6
2  16  5
3  12  6
4  13  6
6  14  5

$$$$
91749831_2
  -OEChem-02201912152D

 39 41  0     1  0  0  0  0  0999 V2000
    3.8915    0.1079    0.0000 C   0  0  2  0  0  0  0  0  0  0  0  0
    4.7005    0.6957    0.0000 C   0  0  1  0  0  0  0  0  0  0  0  0
    3.0825    0.6957    0.0000 C   0  0  2  0  0  0  0  0  0  0  0  0
    3.5819   -0.8367    0.0000 C   0  0  1  0  0  0  0  0  0  0  0  0
    4.2012   -0.8367    0.0000 C   0  0  0  0  0  0  0  0  0  0  0  0
    5.5032    0.1093    0.0000 C   0  0  2  0  0  0  0  0  0  0  0  0
    4.3915    1.6468    0.0000 C   0  0  0  0  0  0  0  0  0  0  0  0
    3.3915    1.6468    0.0000 C   0  0  0  0  0  0  0  0  0  0  0  0
    5.1952   -0.8359    0.0000 C   0  0  0  0  0  0  0  0  0  0  0  0
    2.2798    0.1093    0.0000 C   0  0  0  0  0  0  0  0  0  0  0  0
    2.5878   -0.8359    0.0000 C   0  0  0  0  0  0  0  0  0  0  0  0
    2.2735    1.2835    0.0000 C   0  0  0  0  0  0  0  0  0  0  0  0
    4.1682   -1.6468    0.0000 C   0  0  0  0  0  0  0  0  0  0  0  0
    6.4548    0.4167    0.0000 C   0  0  0  0  0  0  0  0  0  0  0  0
    2.0000   -1.6449    0.0000 C   0  0  0  0  0  0  0  0  0  0  0  0
    5.3888    1.1944    0.0000 H   0  0  0  0  0  0  0  0  0  0  0  0
    3.2997   -1.3888    0.0000 H   0  0  0  0  0  0  0  0  0  0  0  0
    3.5950   -0.9668    0.0000 H   0  0  0  0  0  0  0  0  0  0  0  0
    4.2668   -1.4532    0.0000 H   0  0  0  0  0  0  0  0  0  0  0  0
    5.6015    0.7215    0.0000 H   0  0  0  0  0  0  0  0  0  0  0  0
    4.9980    1.7757    0.0000 H   0  0  0  0  0  0  0  0  0  0  0  0
    4.3267    2.2634    0.0000 H   0  0  0  0  0  0  0  0  0  0  0  0
    3.4563    2.2634    0.0000 H   0  0  0  0  0  0  0  0  0  0  0  0
    2.7850    1.7757    0.0000 H   0  0  0  0  0  0  0  0  0  0  0  0
    5.1306   -1.4525    0.0000 H   0  0  0  0  0  0  0  0  0  0  0  0
    5.8016   -0.9649    0.0000 H   0  0  0  0  0  0  0  0  0  0  0  0
    1.6898    0.2999    0.0000 H   0  0  0  0  0  0  0  0  0  0  0  0
    2.6379    1.7851    0.0000 H   0  0  0  0  0  0  0  0  0  0  0  0
    1.7719    1.6479    0.0000 H   0  0  0  0  0  0  0  0  0  0  0  0
    1.9090    0.7819    0.0000 H   0  0  0  0  0  0  0  0  0  0  0  0
    3.6660   -2.0103    0.0000 H   0  0  0  0  0  0  0  0  0  0  0  0
    4.5318   -2.1490    0.0000 H   0  0  0  0  0  0  0  0  0  0  0  0
    4.6705   -1.2832    0.0000 H   0  0  0  0  0  0  0  0  0  0  0  0
    6.6454   -0.1733    0.0000 H   0  0  0  0  0  0  0  0  0  0  0  0
    7.0448    0.6072    0.0000 H   0  0  0  0  0  0  0  0  0  0  0  0
    6.2642    1.0067    0.0000 H   0  0  0  0  0  0  0  0  0  0  0  0
    1.4984   -1.2804    0.0000 H   0  0  0  0  0  0  0  0  0  0  0  0
    1.6356   -2.1465    0.0000 H   0  0  0  0  0  0  0  0  0  0  0  0
    2.5016   -2.0093    0.0000 H   0  0  0  0  0  0  0  0  0  0  0  0
  1  2  1  0  0  0  0
  1  3  1  0  0  0  0
  1  4  1  0  0  0  0
  1  5  1  6  0  0  0
  2  6  1  0  0  0  0
  2  7  1  0  0  0  0
  2 16  1  1  0  0  0
  3  8  1  0  0  0  0
  3 10  1  0  0  0  0
  3 12  1  6  0  0  0
  4 11  1  0  0  0  0
  4 13  1  6  0  0  0
  4 17  1  0  0  0  0
  5  9  1  0  0  0  0
  5 18  1  0  0  0  0
  5 19  1  0  0  0  0
  6  9  1  0  0  0  0
  6 14  1  1  0  0  0
  6 20  1  0  0  0  0
  7  8  1  0  0  0  0
  7 21  1  0  0  0  0
  7 22  1  0  0  0  0
  8 23  1  0  0  0  0
  8 24  1  0  0  0  0
  9 25  1  0  0  0  0
  9 26  1  0  0  0  0
 10 11  2  0  0  0  0
 10 27  1  0  0  0  0
 11 15  1  0  0  0  0
 12 28  1  0  0  0  0
 12 29  1  0  0  0  0
 12 30  1  0  0  0  0
 13 31  1  0  0  0  0
 13 32  1  0  0  0  0
 13 33  1  0  0  0  0
 14 34  1  0  0  0  0
 14 35  1  0  0  0  0
 14 36  1  0  0  0  0
 15 37  1  0  0  0  0
 15 38  1  0  0  0  0
 15 39  1  0  0  0  0
M  END
> <PUBCHEM_COMPOUND_CID>
91749831

> <PUBCHEM_COMPOUND_CANONICALIZED>
1

> <PUBCHEM_CACTVS_COMPLEXITY>
327

> <PUBCHEM_CACTVS_HBOND_ACCEPTOR>
0

> <PUBCHEM_CACTVS_HBOND_DONOR>
0

> <PUBCHEM_CACTVS_ROTATABLE_BOND>
0

> <PUBCHEM_CACTVS_SUBSKEYS>
AAADceBwAAAAAAAAAAAAAAAAAAAAAYMEAAAAAAAAAAAYIAAAAAAAGAAAAAAADwCAAAACAAAAAACAAiBCAAAAAAAgAAAACAAAAAgAAAIAAQAAAAAAgAAIAAMAgMAPgAAAAAAAAAAAAAAAAAAAAQAACAAAAA==

> <PUBCHEM_IUPAC_OPENEYE_NAME>
(1~{S},2~{R},5~{R},8~{R},9~{S})-2,3,5,9-tetramethyltricyclo[6.3.0.0^{1,5}]undec-3-ene

> <PUBCHEM_IUPAC_CAS_NAME>
(1~{S},2~{R},5~{R},8~{R},9~{S})-2,3,5,9-tetramethyltricyclo[6.3.0.0^{1,5}]undec-3-ene

> <PUBCHEM_IUPAC_NAME>
(1~{S},2~{R},5~{R},8~{R},9~{S})-2,3,5,9-tetramethyltricyclo[6.3.0.0^{1,5}]undec-3-ene

> <PUBCHEM_IUPAC_SYSTEMATIC_NAME>
(1~{S},2~{R},5~{R},8~{R},9~{S})-2,3,5,9-tetramethyltricyclo[6.3.0.0^{1,5}]undec-3-ene

> <PUBCHEM_IUPAC_TRADITIONAL_NAME>
(1~{S},2~{R},5~{R},8~{R},9~{S})-2,3,5,9-tetramethyltricyclo[6.3.0.0^{1,5}]undec-3-ene

> <PUBCHEM_IUPAC_INCHI>
InChI=1S/C15H24/c1-10-5-8-15-12(3)11(2)9-14(15,4)7-6-13(10)15/h9-10,12-13H,5-8H2,1-4H3/t10-,12+,13+,14+,15+/m0/s1

> <PUBCHEM_IUPAC_INCHIKEY>
OVRIZVNVMIWWMN-URWOTSEESA-N

> <PUBCHEM_XLOGP3_AA>
4.8

> <PUBCHEM_EXACT_MASS>
204.188

> <PUBCHEM_MOLECULAR_FORMULA>
C15H24

> <PUBCHEM_MOLECULAR_WEIGHT>
204.357

> <PUBCHEM_OPENEYE_CAN_SMILES>
CC1CCC23C1CCC2(C=C(C3C)C)C

> <PUBCHEM_OPENEYE_ISO_SMILES>
C[C@H]1CC[C@@]23[C@@H]1CC[C@@]2(C=C([C@H]3C)C)C

> <PUBCHEM_CACTVS_TPSA>
0

> <PUBCHEM_MONOISOTOPIC_WEIGHT>
204.188

> <PUBCHEM_TOTAL_CHARGE>
0

> <PUBCHEM_HEAVY_ATOM_COUNT>
15

> <PUBCHEM_ATOM_DEF_STEREO_COUNT>
5

> <PUBCHEM_ATOM_UDEF_STEREO_COUNT>
0

> <PUBCHEM_BOND_DEF_STEREO_COUNT>
0

> <PUBCHEM_BOND_UDEF_STEREO_COUNT>
0

> <PUBCHEM_ISOTOPIC_ATOM_COUNT>
0

> <PUBCHEM_COMPONENT_COUNT>
1

> <PUBCHEM_CACTVS_TAUTO_COUNT>
-1

> <PUBCHEM_COORDINATE_TYPE>
1
5
255

> <PUBCHEM_BONDANNOTATIONS>
1  5  6
2  16  5
3  12  6
4  13  6
6  14  5

$$$$
12306048
  -OEChem-02201912152D

 39 40  0     1  0  0  0  0  0999 V2000
    3.7320   -0.2500    0.0000 C   0  0  1  0  0  0  0  0  0  0  0  0
    2.8660   -0.7500    0.0000 C   0  0  1  0  0  0  0  0  0  0  0  0
    3.7320    0.7500    0.0000 C   0  0  1  0  0  0  0  0  0  0  0  0
    4.6260    1.2847    0.0000 C   0  0  0  0  0  0  0  0  0  0  0  0
    2.0000   -0.2500    0.0000 C   0  0  0  0  0  0  0  0  0  0  0  0
    2.8660   -1.7500    0.0000 C   0  0  0  0  0  0  0  0  0  0  0  0
    2.8660    1.2500    0.0000 C   0  0  0  0  0  0  0  0  0  0  0  0
    4.6260   -0.7847    0.0000 C   0  0  0  0  0  0  0  0  0  0  0  0
    5.5321    0.7708    0.0000 C   0  0  0  0  0  0  0  0  0  0  0  0
    2.0000    0.7500    0.0000 C   0  0  0  0  0  0  0  0  0  0  0  0
    5.5321   -0.2708    0.0000 C   0  0  0  0  0  0  0  0  0  0  0  0
    2.0000   -2.2500    0.0000 C   0  0  0  0  0  0  0  0  0  0  0  0
    3.7320   -2.2500    0.0000 C   0  0  0  0  0  0  0  0  0  0  0  0
    2.8660    2.2500    0.0000 C   0  0  0  0  0  0  0  0  0  0  0  0
    6.3961   -0.7742    0.0000 C   0  0  0  0  0  0  0  0  0  0  0  0
    3.7255   -1.1000    0.0000 H   0  0  0  0  0  0  0  0  0  0  0  0
    2.3291   -1.0600    0.0000 H   0  0  0  0  0  0  0  0  0  0  0  0
    3.7255    1.6000    0.0000 H   0  0  0  0  0  0  0  0  0  0  0  0
    5.0196    1.7637    0.0000 H   0  0  0  0  0  0  0  0  0  0  0  0
    4.2214    1.7544    0.0000 H   0  0  0  0  0  0  0  0  0  0  0  0
    1.3894   -0.1423    0.0000 H   0  0  0  0  0  0  0  0  0  0  0  0
    1.7880   -0.8326    0.0000 H   0  0  0  0  0  0  0  0  0  0  0  0
    2.8660   -2.3700    0.0000 H   0  0  0  0  0  0  0  0  0  0  0  0
    4.6188   -1.4046    0.0000 H   0  0  0  0  0  0  0  0  0  0  0  0
    6.1429    0.6647    0.0000 H   0  0  0  0  0  0  0  0  0  0  0  0
    5.7411    1.3545    0.0000 H   0  0  0  0  0  0  0  0  0  0  0  0
    1.4631    1.0600    0.0000 H   0  0  0  0  0  0  0  0  0  0  0  0
    1.6900   -1.7131    0.0000 H   0  0  0  0  0  0  0  0  0  0  0  0
    1.4631   -2.5600    0.0000 H   0  0  0  0  0  0  0  0  0  0  0  0
    2.3100   -2.7869    0.0000 H   0  0  0  0  0  0  0  0  0  0  0  0
    3.4220   -2.7869    0.0000 H   0  0  0  0  0  0  0  0  0  0  0  0
    4.2690   -2.5600    0.0000 H   0  0  0  0  0  0  0  0  0  0  0  0
    4.0420   -1.7131    0.0000 H   0  0  0  0  0  0  0  0  0  0  0  0
    3.4860    2.2500    0.0000 H   0  0  0  0  0  0  0  0  0  0  0  0
    2.8660    2.8700    0.0000 H   0  0  0  0  0  0  0  0  0  0  0  0
    2.2460    2.2500    0.0000 H   0  0  0  0  0  0  0  0  0  0  0  0
    6.0841   -1.3099    0.0000 H   0  0  0  0  0  0  0  0  0  0  0  0
    6.9319   -1.0862    0.0000 H   0  0  0  0  0  0  0  0  0  0  0  0
    6.7082   -0.2384    0.0000 H   0  0  0  0  0  0  0  0  0  0  0  0
  1  2  1  0  0  0  0
  1  3  1  0  0  0  0
  1  8  1  0  0  0  0
  1 16  1  6  0  0  0
  2  5  1  0  0  0  0
  2  6  1  6  0  0  0
  2 17  1  0  0  0  0
  3  4  1  0  0  0  0
  3  7  1  0  0  0  0
  3 18  1  1  0  0  0
  4  9  1  0  0  0  0
  4 19  1  0  0  0  0
  4 20  1  0  0  0  0
  5 10  1  0  0  0  0
  5 21  1  0  0  0  0
  5 22  1  0  0  0  0
  6 12  1  0  0  0  0
  6 13  1  0  0  0  0
  6 23  1  0  0  0  0
  7 10  2  0  0  0  0
  7 14  1  0  0  0  0
  8 11  2  0  0  0  0
  8 24  1  0  0  0  0
  9 11  1  0  0  0  0
  9 25  1  0  0  0  0
  9 26  1  0  0  0  0
 10 27  1  0  0  0  0
 11 15  1  0  0  0  0
 12 28  1  0  0  0  0
 12 29  1  0  0  0  0
 12 30  1  0  0  0  0
 13 31  1  0  0  0  0
 13 32  1  0  0  0  0
 13 33  1  0  0  0  0
 14 34  1  0  0  0  0
 14 35  1  0  0  0  0
 14 36  1  0  0  0  0
 15 37  1  0  0  0  0
 15 38  1  0  0  0  0
 15 39  1  0  0  0  0
M  END
> <PUBCHEM_COMPOUND_CID>
12306048

> <PUBCHEM_COMPOUND_CANONICALIZED>
1

> <PUBCHEM_CACTVS_COMPLEXITY>
293

> <PUBCHEM_CACTVS_HBOND_ACCEPTOR>
0

> <PUBCHEM_CACTVS_HBOND_DONOR>
0

> <PUBCHEM_CACTVS_ROTATABLE_BOND>
1

> <PUBCHEM_CACTVS_SUBSKEYS>
AAADceBwAAAAAAAAAAAAAAAAAAAAAAAAAAAgQAAAAAAAAACAAAAAGAAAAAAADQCAAAACAAAAAACAAiBCAAAAAAAgAAAACAAAAAgAAAIAAQAAAAAAgAAIAAMAgMAOgAAAAAAAAAAAAAAAAAAAAAAAAAAAAA==

> <PUBCHEM_IUPAC_OPENEYE_NAME>
(1~{S},4~{a}~{R},8~{a}~{R})-1-isopropyl-4,7-dimethyl-1,2,4~{a},5,6,8~{a}-hexahydronaphthalene

> <PUBCHEM_IUPAC_CAS_NAME>
(1~{S},4~{a}~{R},8~{a}~{R})-4,7-dimethyl-1-propan-2-yl-1,2,4~{a},5,6,8~{a}-hexahydronaphthalene

> <PUBCHEM_IUPAC_NAME>
(1~{S},4~{a}~{R},8~{a}~{R})-4,7-dimethyl-1-propan-2-yl-1,2,4~{a},5,6,8~{a}-hexahydronaphthalene

> <PUBCHEM_IUPAC_SYSTEMATIC_NAME>
(1~{S},4~{a}~{R},8~{a}~{R})-4,7-dimethyl-1-propan-2-yl-1,2,4~{a},5,6,8~{a}-hexahydronaphthalene

> <PUBCHEM_IUPAC_TRADITIONAL_NAME>
(1~{S},4~{a}~{R},8~{a}~{R})-1-isopropyl-4,7-dimethyl-1,2,4~{a},5,6,8~{a}-hexahydronaphthalene

> <PUBCHEM_IUPAC_INCHI>
InChI=1S/C15H24/c1-10(2)13-8-6-12(4)14-7-5-11(3)9-15(13)14/h6,9-10,13-15H,5,7-8H2,1-4H3/t13-,14-,15-/m0/s1

> <PUBCHEM_IUPAC_INCHIKEY>
QMAYBMKBYCGXDH-KKUMJFAQSA-N

> <PUBCHEM_XLOGP3_AA>
4.1

> <PUBCHEM_EXACT_MASS>
204.188

> <PUBCHEM_MOLECULAR_FORMULA>
C15H24

> <PUBCHEM_MOLECULAR_WEIGHT>
204.357

> <PUBCHEM_OPENEYE_CAN_SMILES>
CC1=CC2C(CC1)C(=CCC2C(C)C)C

> <PUBCHEM_OPENEYE_ISO_SMILES>
CC1=C[C@@H]2[C@@H](CC1)C(=CC[C@H]2C(C)C)C

> <PUBCHEM_CACTVS_TPSA>
0

> <PUBCHEM_MONOISOTOPIC_WEIGHT>
204.188

> <PUBCHEM_TOTAL_CHARGE>
0

> <PUBCHEM_HEAVY_ATOM_COUNT>
15

> <PUBCHEM_ATOM_DEF_STEREO_COUNT>
3

> <PUBCHEM_ATOM_UDEF_STEREO_COUNT>
0

> <PUBCHEM_BOND_DEF_STEREO_COUNT>
0

> <PUBCHEM_BOND_UDEF_STEREO_COUNT>
0

> <PUBCHEM_ISOTOPIC_ATOM_COUNT>
0

> <PUBCHEM_COMPONENT_COUNT>
1

> <PUBCHEM_CACTVS_TAUTO_COUNT>
1

> <PUBCHEM_COORDINATE_TYPE>
1
5
255

> <PUBCHEM_BONDANNOTATIONS>
1  16  6
2  6  6
3  18  5

$$$$
6431015
  -OEChem-02201912152D

 39 41  0     1  0  0  0  0  0999 V2000
    4.0430   -0.7073    0.0000 C   0  0  1  0  0  0  0  0  0  0  0  0
    3.1420   -0.2734    0.0000 C   0  0  2  0  0  0  0  0  0  0  0  0
    2.9195    0.7015    0.0000 C   0  0  0  0  0  0  0  0  0  0  0  0
    3.5430    1.4834    0.0000 C   0  0  1  0  0  0  0  0  0  0  0  0
    4.1499    0.4695    0.0000 C   0  0  0  0  0  0  0  0  0  0  0  0
    3.9070   -1.6920    0.0000 C   0  0  1  0  0  0  0  0  0  0  0  0
    2.4569   -0.9937    0.0000 C   0  0  0  0  0  0  0  0  0  0  0  0
    4.9440   -0.2734    0.0000 C   0  0  0  0  0  0  0  0  0  0  0  0
    2.9288   -1.8687    0.0000 C   0  0  0  0  0  0  0  0  0  0  0  0
    4.5430    1.4834    0.0000 C   0  0  0  0  0  0  0  0  0  0  0  0
    2.2616    1.4546    0.0000 C   0  0  0  0  0  0  0  0  0  0  0  0
    2.0000    0.3085    0.0000 C   0  0  0  0  0  0  0  0  0  0  0  0
    5.1665    0.7015    0.0000 C   0  0  0  0  0  0  0  0  0  0  0  0
    4.6286   -2.3843    0.0000 C   0  0  0  0  0  0  0  0  0  0  0  0
    4.9769    2.3843    0.0000 C   0  0  0  0  0  0  0  0  0  0  0  0
    2.3762    0.0954    0.0000 H   0  0  0  0  0  0  0  0  0  0  0  0
    3.3539    2.3120    0.0000 H   0  0  0  0  0  0  0  0  0  0  0  0
    4.7199    0.2257    0.0000 H   0  0  0  0  0  0  0  0  0  0  0  0
    4.5577    0.9365    0.0000 H   0  0  0  0  0  0  0  0  0  0  0  0
    3.7279   -2.2856    0.0000 H   0  0  0  0  0  0  0  0  0  0  0  0
    2.0551   -0.5216    0.0000 H   0  0  0  0  0  0  0  0  0  0  0  0
    1.9452   -1.3437    0.0000 H   0  0  0  0  0  0  0  0  0  0  0  0
    5.0820   -0.8779    0.0000 H   0  0  0  0  0  0  0  0  0  0  0  0
    5.5640   -0.2734    0.0000 H   0  0  0  0  0  0  0  0  0  0  0  0
    2.3551   -2.1040    0.0000 H   0  0  0  0  0  0  0  0  0  0  0  0
    3.1025   -2.4638    0.0000 H   0  0  0  0  0  0  0  0  0  0  0  0
    1.7563    0.8786    0.0000 H   0  0  0  0  0  0  0  0  0  0  0  0
    1.4299    0.0648    0.0000 H   0  0  0  0  0  0  0  0  0  0  0  0
    2.2437   -0.2616    0.0000 H   0  0  0  0  0  0  0  0  0  0  0  0
    2.7285    1.8625    0.0000 H   0  0  0  0  0  0  0  0  0  0  0  0
    1.8537    1.9215    0.0000 H   0  0  0  0  0  0  0  0  0  0  0  0
    1.7947    1.0467    0.0000 H   0  0  0  0  0  0  0  0  0  0  0  0
    5.7710    0.8395    0.0000 H   0  0  0  0  0  0  0  0  0  0  0  0
    4.1994   -2.8317    0.0000 H   0  0  0  0  0  0  0  0  0  0  0  0
    5.0760   -2.8136    0.0000 H   0  0  0  0  0  0  0  0  0  0  0  0
    5.0578   -1.9369    0.0000 H   0  0  0  0  0  0  0  0  0  0  0  0
    5.5355    2.1153    0.0000 H   0  0  0  0  0  0  0  0  0  0  0  0
    5.2459    2.9429    0.0000 H   0  0  0  0  0  0  0  0  0  0  0  0
    4.4183    2.6533    0.0000 H   0  0  0  0  0  0  0  0  0  0  0  0
  1  2  1  0  0  0  0
  1  5  1  1  0  0  0
  1  6  1  0  0  0  0
  1  8  1  0  0  0  0
  2  3  1  0  0  0  0
  2  7  1  0  0  0  0
  2 16  1  6  0  0  0
  3  4  1  0  0  0  0
  3 11  1  0  0  0  0
  3 12  1  0  0  0  0
  4  5  1  0  0  0  0
  4 10  1  0  0  0  0
  4 17  1  1  0  0  0
  5 18  1  0  0  0  0
  5 19  1  0  0  0  0
  6  9  1  0  0  0  0
  6 14  1  6  0  0  0
  6 20  1  0  0  0  0
  7  9  1  0  0  0  0
  7 21  1  0  0  0  0
  7 22  1  0  0  0  0
  8 13  1  0  0  0  0
  8 23  1  0  0  0  0
  8 24  1  0  0  0  0
  9 25  1  0  0  0  0
  9 26  1  0  0  0  0
 10 13  2  0  0  0  0
 10 15  1  0  0  0  0
 11 30  1  0  0  0  0
 11 31  1  0  0  0  0
 11 32  1  0  0  0  0
 12 27  1  0  0  0  0
 12 28  1  0  0  0  0
 12 29  1  0  0  0  0
 13 33  1  0  0  0  0
 14 34  1  0  0  0  0
 14 35  1  0  0  0  0
 14 36  1  0  0  0  0
 15 37  1  0  0  0  0
 15 38  1  0  0  0  0
 15 39  1  0  0  0  0
M  END
> <PUBCHEM_COMPOUND_CID>
6431015

> <PUBCHEM_COMPOUND_CANONICALIZED>
1

> <PUBCHEM_CACTVS_COMPLEXITY>
323

> <PUBCHEM_CACTVS_HBOND_ACCEPTOR>
0

> <PUBCHEM_CACTVS_HBOND_DONOR>
0

> <PUBCHEM_CACTVS_ROTATABLE_BOND>
0

> <PUBCHEM_CACTVS_SUBSKEYS>
AAADceBwAAAAAAAAAAAAAAAAAAAAAYMAAAAgAAAABAAYAACAAAAAGAAAAAAADwCAAAACAAAAAACAAiBCAAAAAAAgAAAACAAAAAgAAAIAAQAAAAAAgAAIAAMAgMAPgAAAAAAAAAAAAAAAAAAAAQAACAAAAA==

> <PUBCHEM_IUPAC_OPENEYE_NAME>
(1~{S},2~{R},5~{S},7~{S})-2,6,6,8-tetramethyltricyclo[5.3.1.0^{1,5}]undec-8-ene

> <PUBCHEM_IUPAC_CAS_NAME>
(1~{S},2~{R},5~{S},7~{S})-2,6,6,8-tetramethyltricyclo[5.3.1.0^{1,5}]undec-8-ene

> <PUBCHEM_IUPAC_NAME>
(1~{S},2~{R},5~{S},7~{S})-2,6,6,8-tetramethyltricyclo[5.3.1.0^{1,5}]undec-8-ene

> <PUBCHEM_IUPAC_SYSTEMATIC_NAME>
(1~{S},2~{R},5~{S},7~{S})-2,6,6,8-tetramethyltricyclo[5.3.1.0^{1,5}]undec-8-ene

> <PUBCHEM_IUPAC_TRADITIONAL_NAME>
(1~{S},2~{R},5~{S},7~{S})-2,6,6,8-tetramethyltricyclo[5.3.1.0^{1,5}]undec-8-ene

> <PUBCHEM_IUPAC_INCHI>
InChI=1S/C15H24/c1-10-7-8-15-9-12(10)14(3,4)13(15)6-5-11(15)2/h7,11-13H,5-6,8-9H2,1-4H3/t11-,12+,13+,15+/m1/s1

> <PUBCHEM_IUPAC_INCHIKEY>
IRAQOCYXUMOFCW-OSFYFWSMSA-N

> <PUBCHEM_XLOGP3_AA>
4.6

> <PUBCHEM_EXACT_MASS>
204.188

> <PUBCHEM_MOLECULAR_FORMULA>
C15H24

> <PUBCHEM_MOLECULAR_WEIGHT>
204.357

> <PUBCHEM_OPENEYE_CAN_SMILES>
CC1CCC2C13CC=C(C(C3)C2(C)C)C

> <PUBCHEM_OPENEYE_ISO_SMILES>
C[C@@H]1CC[C@@H]2[C@]13CC=C([C@H](C3)C2(C)C)C

> <PUBCHEM_CACTVS_TPSA>
0

> <PUBCHEM_MONOISOTOPIC_WEIGHT>
204.188

> <PUBCHEM_TOTAL_CHARGE>
0

> <PUBCHEM_HEAVY_ATOM_COUNT>
15

> <PUBCHEM_ATOM_DEF_STEREO_COUNT>
4

> <PUBCHEM_ATOM_UDEF_STEREO_COUNT>
0

> <PUBCHEM_BOND_DEF_STEREO_COUNT>
0

> <PUBCHEM_BOND_UDEF_STEREO_COUNT>
0

> <PUBCHEM_ISOTOPIC_ATOM_COUNT>
0

> <PUBCHEM_COMPONENT_COUNT>
1

> <PUBCHEM_CACTVS_TAUTO_COUNT>
1

> <PUBCHEM_COORDINATE_TYPE>
1
5
255

> <PUBCHEM_BONDANNOTATIONS>
1  5  5
2  16  6
4  17  5
6  14  6

$$$$
76319594
  -OEChem-02201912152D

 39 41  0     1  0  0  0  0  0999 V2000
    2.9986   -0.0572    0.0000 C   0  0  3  0  0  0  0  0  0  0  0  0
    5.8153    0.0280    0.0000 C   0  0  3  0  0  0  0  0  0  0  0  0
    4.6752    0.9851    0.0000 C   0  0  1  0  0  0  0  0  0  0  0  0
    4.4164    0.0192    0.0000 C   0  0  2  0  0  0  0  0  0  0  0  0
    5.3659   -0.8607    0.0000 C   0  0  3  0  0  0  0  0  0  0  0  0
    3.5009   -0.9171    0.0000 C   0  0  0  0  0  0  0  0  0  0  0  0
    4.4439   -1.2372    0.0000 C   0  0  0  0  0  0  0  0  0  0  0  0
    4.5967    2.4459    0.0000 C   0  0  0  0  0  0  0  0  0  0  0  0
    3.1954    1.6369    0.0000 C   0  0  0  0  0  0  0  0  0  0  0  0
    2.0000   -0.1109    0.0000 C   0  0  0  0  0  0  0  0  0  0  0  0
    6.0440   -1.5957    0.0000 C   0  0  0  0  0  0  0  0  0  0  0  0
    3.6022    2.5504    0.0000 C   0  0  0  0  0  0  0  0  0  0  0  0
    2.2173    1.4290    0.0000 C   0  0  0  0  0  0  0  0  0  0  0  0
    7.0195   -1.3760    0.0000 C   0  0  0  0  0  0  0  0  0  0  0  0
    5.7465   -2.5504    0.0000 C   0  0  0  0  0  0  0  0  0  0  0  0
    6.4227    0.1525    0.0000 H   0  0  0  0  0  0  0  0  0  0  0  0
    4.8952    1.8062    0.0000 H   0  0  0  0  0  0  0  0  0  0  0  0
    4.2559   -0.5797    0.0000 H   0  0  0  0  0  0  0  0  0  0  0  0
    6.2078   -0.7434    0.0000 H   0  0  0  0  0  0  0  0  0  0  0  0
    2.8991   -1.0665    0.0000 H   0  0  0  0  0  0  0  0  0  0  0  0
    3.4749   -1.5365    0.0000 H   0  0  0  0  0  0  0  0  0  0  0  0
    4.0874   -1.7445    0.0000 H   0  0  0  0  0  0  0  0  0  0  0  0
    4.8304   -1.7220    0.0000 H   0  0  0  0  0  0  0  0  0  0  0  0
    5.2167    2.4464    0.0000 H   0  0  0  0  0  0  0  0  0  0  0  0
    4.6289    3.0650    0.0000 H   0  0  0  0  0  0  0  0  0  0  0  0
    1.9667    0.5082    0.0000 H   0  0  0  0  0  0  0  0  0  0  0  0
    1.3809   -0.1443    0.0000 H   0  0  0  0  0  0  0  0  0  0  0  0
    2.0333   -0.7300    0.0000 H   0  0  0  0  0  0  0  0  0  0  0  0
    5.4391   -1.7319    0.0000 H   0  0  0  0  0  0  0  0  0  0  0  0
    3.2922    3.0873    0.0000 H   0  0  0  0  0  0  0  0  0  0  0  0
    2.0884    2.0354    0.0000 H   0  0  0  0  0  0  0  0  0  0  0  0
    1.6108    1.3000    0.0000 H   0  0  0  0  0  0  0  0  0  0  0  0
    2.3462    0.8225    0.0000 H   0  0  0  0  0  0  0  0  0  0  0  0
    5.1545   -2.3660    0.0000 H   0  0  0  0  0  0  0  0  0  0  0  0
    5.5620   -3.1423    0.0000 H   0  0  0  0  0  0  0  0  0  0  0  0
    6.3384   -2.7349    0.0000 H   0  0  0  0  0  0  0  0  0  0  0  0
    7.1557   -1.9808    0.0000 H   0  0  0  0  0  0  0  0  0  0  0  0
    7.6244   -1.2397    0.0000 H   0  0  0  0  0  0  0  0  0  0  0  0
    6.8833   -0.7711    0.0000 H   0  0  0  0  0  0  0  0  0  0  0  0
  1  3  1  0  0  0  0
  1  4  1  0  0  0  0
  1  6  1  0  0  0  0
  1 10  1  0  0  0  0
  2  3  1  0  0  0  0
  2  4  1  0  0  0  0
  2  5  1  0  0  0  0
  2 16  1  0  0  0  0
  3  8  1  0  0  0  0
  3 17  1  1  0  0  0
  4  9  1  0  0  0  0
  4 18  1  0  0  0  0
  5  7  1  0  0  0  0
  5 11  1  0  0  0  0
  5 19  1  0  0  0  0
  6  7  1  0  0  0  0
  6 20  1  0  0  0  0
  6 21  1  0  0  0  0
  7 22  1  0  0  0  0
  7 23  1  0  0  0  0
  8 12  1  0  0  0  0
  8 24  1  0  0  0  0
  8 25  1  0  0  0  0
  9 12  2  0  0  0  0
  9 13  1  0  0  0  0
 10 26  1  0  0  0  0
 10 27  1  0  0  0  0
 10 28  1  0  0  0  0
 11 14  1  0  0  0  0
 11 15  1  0  0  0  0
 11 29  1  0  0  0  0
 12 30  1  0  0  0  0
 13 31  1  0  0  0  0
 13 32  1  0  0  0  0
 13 33  1  0  0  0  0
 14 37  1  0  0  0  0
 14 38  1  0  0  0  0
 14 39  1  0  0  0  0
 15 34  1  0  0  0  0
 15 35  1  0  0  0  0
 15 36  1  0  0  0  0
M  END
> <PUBCHEM_COMPOUND_CID>
76319594

> <PUBCHEM_COMPOUND_CANONICALIZED>
1

> <PUBCHEM_CACTVS_COMPLEXITY>
312

> <PUBCHEM_CACTVS_HBOND_ACCEPTOR>
0

> <PUBCHEM_CACTVS_HBOND_DONOR>
0

> <PUBCHEM_CACTVS_ROTATABLE_BOND>
1

> <PUBCHEM_CACTVS_SUBSKEYS>
AAADceBwAAAAAAAAAAAAAAAAAABgAAAAAAAwYIEAAAAAAAAAAAAAGAAAAAAADwCAAAACAAAAAACAAiBCAAAAAAAgAAAACAAAAAgAAAIAAQAAAAAAgAAIAAMAgMAPgAAAAAAAAACAAAQAACAAAAAAAAAAAA==

> <PUBCHEM_IUPAC_OPENEYE_NAME>
(2~{R},6~{R})-8-isopropyl-1,3-dimethyl-tricyclo[4.4.0.0^{2,7}]dec-3-ene

> <PUBCHEM_IUPAC_CAS_NAME>
(2~{R},6~{R})-1,3-dimethyl-8-propan-2-yltricyclo[4.4.0.0^{2,7}]dec-3-ene

> <PUBCHEM_IUPAC_NAME>
(2~{R},6~{R})-1,3-dimethyl-8-propan-2-yltricyclo[4.4.0.0^{2,7}]dec-3-ene

> <PUBCHEM_IUPAC_SYSTEMATIC_NAME>
(2~{R},6~{R})-1,3-dimethyl-8-propan-2-yl-tricyclo[4.4.0.0^{2,7}]dec-3-ene

> <PUBCHEM_IUPAC_TRADITIONAL_NAME>
(2~{R},6~{R})-8-isopropyl-1,3-dimethyl-tricyclo[4.4.0.0^{2,7}]dec-3-ene

> <PUBCHEM_IUPAC_INCHI>
InChI=1S/C15H24/c1-9(2)11-7-8-15(4)12-6-5-10(3)14(15)13(11)12/h5,9,11-14H,6-8H2,1-4H3/t11?,12-,13?,14+,15?/m1/s1

> <PUBCHEM_IUPAC_INCHIKEY>
VLXDPFLIRFYIME-MFEYBKIZSA-N

> <PUBCHEM_XLOGP3_AA>
4.5

> <PUBCHEM_EXACT_MASS>
204.188

> <PUBCHEM_MOLECULAR_FORMULA>
C15H24

> <PUBCHEM_MOLECULAR_WEIGHT>
204.357

> <PUBCHEM_OPENEYE_CAN_SMILES>
CC1=CCC2C3C1C2(CCC3C(C)C)C

> <PUBCHEM_OPENEYE_ISO_SMILES>
CC1=CC[C@@H]2C3[C@H]1C2(CCC3C(C)C)C

> <PUBCHEM_CACTVS_TPSA>
0

> <PUBCHEM_MONOISOTOPIC_WEIGHT>
204.188

> <PUBCHEM_TOTAL_CHARGE>
0

> <PUBCHEM_HEAVY_ATOM_COUNT>
15

> <PUBCHEM_ATOM_DEF_STEREO_COUNT>
2

> <PUBCHEM_ATOM_UDEF_STEREO_COUNT>
3

> <PUBCHEM_BOND_DEF_STEREO_COUNT>
0

> <PUBCHEM_BOND_UDEF_STEREO_COUNT>
0

> <PUBCHEM_ISOTOPIC_ATOM_COUNT>
0

> <PUBCHEM_COMPONENT_COUNT>
1

> <PUBCHEM_CACTVS_TAUTO_COUNT>
1

> <PUBCHEM_COORDINATE_TYPE>
1
5
255

> <PUBCHEM_BONDANNOTATIONS>
1  4  3
2  4  3
3  17  5
5  19  3

$$$$
442359
  -OEChem-02201912152D

 39 41  0     1  0  0  0  0  0999 V2000
    4.5981   -0.3914    0.0000 C   0  0  2  0  0  0  0  0  0  0  0  0
    3.7320    0.1086    0.0000 C   0  0  1  0  0  0  0  0  0  0  0  0
    3.7318   -0.8919    0.0000 C   0  0  1  0  0  0  0  0  0  0  0  0
    5.4641    0.1086    0.0000 C   0  0  1  0  0  0  0  0  0  0  0  0
    3.7320    1.1086    0.0000 C   0  0  1  0  0  0  0  0  0  0  0  0
    5.3356   -1.0586    0.0000 C   0  0  0  0  0  0  0  0  0  0  0  0
    3.9413   -1.8641    0.0000 C   0  0  0  0  0  0  0  0  0  0  0  0
    5.4641    1.1086    0.0000 C   0  0  0  0  0  0  0  0  0  0  0  0
    4.5981    1.6086    0.0000 C   0  0  0  0  0  0  0  0  0  0  0  0
    4.9305   -1.9669    0.0000 C   0  0  0  0  0  0  0  0  0  0  0  0
    2.8660    1.6086    0.0000 C   0  0  0  0  0  0  0  0  0  0  0  0
    6.3301   -0.3914    0.0000 C   0  0  0  0  0  0  0  0  0  0  0  0
    3.2737   -2.6086    0.0000 C   0  0  0  0  0  0  0  0  0  0  0  0
    2.8660    2.6086    0.0000 C   0  0  0  0  0  0  0  0  0  0  0  0
    2.0000    1.1086    0.0000 C   0  0  0  0  0  0  0  0  0  0  0  0
    2.8820    0.1087    0.0000 H   0  0  0  0  0  0  0  0  0  0  0  0
    2.8866   -0.9818    0.0000 H   0  0  0  0  0  0  0  0  0  0  0  0
    5.4641   -0.5114    0.0000 H   0  0  0  0  0  0  0  0  0  0  0  0
    3.7320    1.7286    0.0000 H   0  0  0  0  0  0  0  0  0  0  0  0
    5.8722   -1.3693    0.0000 H   0  0  0  0  0  0  0  0  0  0  0  0
    5.7009   -0.5577    0.0000 H   0  0  0  0  0  0  0  0  0  0  0  0
    6.0747    1.0009    0.0000 H   0  0  0  0  0  0  0  0  0  0  0  0
    5.6762    1.6912    0.0000 H   0  0  0  0  0  0  0  0  0  0  0  0
    4.9966    2.0835    0.0000 H   0  0  0  0  0  0  0  0  0  0  0  0
    4.1996    2.0835    0.0000 H   0  0  0  0  0  0  0  0  0  0  0  0
    5.2407   -2.5038    0.0000 H   0  0  0  0  0  0  0  0  0  0  0  0
    2.8660    0.9886    0.0000 H   0  0  0  0  0  0  0  0  0  0  0  0
    6.0201   -0.9284    0.0000 H   0  0  0  0  0  0  0  0  0  0  0  0
    6.8671   -0.7014    0.0000 H   0  0  0  0  0  0  0  0  0  0  0  0
    6.6401    0.1455    0.0000 H   0  0  0  0  0  0  0  0  0  0  0  0
    2.8121   -2.1946    0.0000 H   0  0  0  0  0  0  0  0  0  0  0  0
    2.8597   -3.0701    0.0000 H   0  0  0  0  0  0  0  0  0  0  0  0
    3.7353   -3.0225    0.0000 H   0  0  0  0  0  0  0  0  0  0  0  0
    3.4860    2.6086    0.0000 H   0  0  0  0  0  0  0  0  0  0  0  0
    2.8660    3.2285    0.0000 H   0  0  0  0  0  0  0  0  0  0  0  0
    2.2460    2.6086    0.0000 H   0  0  0  0  0  0  0  0  0  0  0  0
    1.6900    1.6455    0.0000 H   0  0  0  0  0  0  0  0  0  0  0  0
    1.4631    0.7986    0.0000 H   0  0  0  0  0  0  0  0  0  0  0  0
    2.3100    0.5716    0.0000 H   0  0  0  0  0  0  0  0  0  0  0  0
  1  2  1  0  0  0  0
  1  3  1  0  0  0  0
  1  4  1  0  0  0  0
  1  6  1  6  0  0  0
  2  3  1  0  0  0  0
  2  5  1  0  0  0  0
  2 16  1  6  0  0  0
  3  7  1  0  0  0  0
  3 17  1  1  0  0  0
  4  8  1  0  0  0  0
  4 12  1  1  0  0  0
  4 18  1  0  0  0  0
  5  9  1  0  0  0  0
  5 11  1  6  0  0  0
  5 19  1  0  0  0  0
  6 10  1  0  0  0  0
  6 20  1  0  0  0  0
  6 21  1  0  0  0  0
  7 10  2  0  0  0  0
  7 13  1  0  0  0  0
  8  9  1  0  0  0  0
  8 22  1  0  0  0  0
  8 23  1  0  0  0  0
  9 24  1  0  0  0  0
  9 25  1  0  0  0  0
 10 26  1  0  0  0  0
 11 14  1  0  0  0  0
 11 15  1  0  0  0  0
 11 27  1  0  0  0  0
 12 28  1  0  0  0  0
 12 29  1  0  0  0  0
 12 30  1  0  0  0  0
 13 31  1  0  0  0  0
 13 32  1  0  0  0  0
 13 33  1  0  0  0  0
 14 34  1  0  0  0  0
 14 35  1  0  0  0  0
 14 36  1  0  0  0  0
 15 37  1  0  0  0  0
 15 38  1  0  0  0  0
 15 39  1  0  0  0  0
M  END
> <PUBCHEM_COMPOUND_CID>
442359

> <PUBCHEM_COMPOUND_CANONICALIZED>
1

> <PUBCHEM_CACTVS_COMPLEXITY>
312

> <PUBCHEM_CACTVS_HBOND_ACCEPTOR>
0

> <PUBCHEM_CACTVS_HBOND_DONOR>
0

> <PUBCHEM_CACTVS_ROTATABLE_BOND>
1

> <PUBCHEM_CACTVS_SUBSKEYS>
AAADceBwAAAAAAAAAAAAAAAAGAAAAQAAAAAwQAAABgAAAACAAAAAGAAAAAAADwCAAAACAAAAAACAAiBCAAAAAAAgAAAACAAAAAgAAAIAAQAAAAAAgAAIAAMAgMAPgAAAAAAAAACAAAQAACAAAAAAAAAAAA==

> <PUBCHEM_IUPAC_OPENEYE_NAME>
(1~{R},5~{S},6~{R},7~{S},10~{R})-7-isopropyl-4,10-dimethyl-tricyclo[4.4.0.0^{1,5}]dec-3-ene

> <PUBCHEM_IUPAC_CAS_NAME>
(1~{R},5~{S},6~{R},7~{S},10~{R})-4,10-dimethyl-7-propan-2-yltricyclo[4.4.0.0^{1,5}]dec-3-ene

> <PUBCHEM_IUPAC_NAME>
(1~{R},5~{S},6~{R},7~{S},10~{R})-4,10-dimethyl-7-propan-2-yltricyclo[4.4.0.0^{1,5}]dec-3-ene

> <PUBCHEM_IUPAC_SYSTEMATIC_NAME>
(1~{R},5~{S},6~{R},7~{S},10~{R})-4,10-dimethyl-7-propan-2-yl-tricyclo[4.4.0.0^{1,5}]dec-3-ene

> <PUBCHEM_IUPAC_TRADITIONAL_NAME>
(1~{R},5~{S},6~{R},7~{S},10~{R})-7-isopropyl-4,10-dimethyl-tricyclo[4.4.0.0^{1,5}]dec-3-ene

> <PUBCHEM_IUPAC_INCHI>
InChI=1S/C15H24/c1-9(2)12-6-5-11(4)15-8-7-10(3)13(15)14(12)15/h7,9,11-14H,5-6,8H2,1-4H3/t11-,12+,13-,14-,15+/m1/s1

> <PUBCHEM_IUPAC_INCHIKEY>
XUEHVOLRMXNRKQ-KHMAMNHCSA-N

> <PUBCHEM_XLOGP3_AA>
4.5

> <PUBCHEM_EXACT_MASS>
204.188

> <PUBCHEM_MOLECULAR_FORMULA>
C15H24

> <PUBCHEM_MOLECULAR_WEIGHT>
204.357

> <PUBCHEM_OPENEYE_CAN_SMILES>
CC1CCC(C2C13C2C(=CC3)C)C(C)C

> <PUBCHEM_OPENEYE_ISO_SMILES>
C[C@@H]1CC[C@H]([C@H]2[C@]13[C@@H]2C(=CC3)C)C(C)C

> <PUBCHEM_CACTVS_TPSA>
0

> <PUBCHEM_MONOISOTOPIC_WEIGHT>
204.188

> <PUBCHEM_TOTAL_CHARGE>
0

> <PUBCHEM_HEAVY_ATOM_COUNT>
15

> <PUBCHEM_ATOM_DEF_STEREO_COUNT>
5

> <PUBCHEM_ATOM_UDEF_STEREO_COUNT>
0

> <PUBCHEM_BOND_DEF_STEREO_COUNT>
0

> <PUBCHEM_BOND_UDEF_STEREO_COUNT>
0

> <PUBCHEM_ISOTOPIC_ATOM_COUNT>
0

> <PUBCHEM_COMPONENT_COUNT>
1

> <PUBCHEM_CACTVS_TAUTO_COUNT>
1

> <PUBCHEM_COORDINATE_TYPE>
1
5
255

> <PUBCHEM_BONDANNOTATIONS>
1  6  6
2  16  6
3  17  5
4  12  5
5  11  6

$$$$
5281516
  -OEChem-02201912152D

 39 38  0     0  0  0  0  0  0999 V2000
    5.4641    0.4400    0.0000 C   0  0  0  0  0  0  0  0  0  0  0  0
    4.5981   -0.0600    0.0000 C   0  0  0  0  0  0  0  0  0  0  0  0
    6.3301   -0.0600    0.0000 C   0  0  0  0  0  0  0  0  0  0  0  0
    7.1962    0.4400    0.0000 C   0  0  0  0  0  0  0  0  0  0  0  0
    3.7320    0.4400    0.0000 C   0  0  0  0  0  0  0  0  0  0  0  0
    8.0622   -0.0600    0.0000 C   0  0  0  0  0  0  0  0  0  0  0  0
    6.3301   -1.0600    0.0000 C   0  0  0  0  0  0  0  0  0  0  0  0
    2.8660   -0.0600    0.0000 C   0  0  0  0  0  0  0  0  0  0  0  0
    8.9282    0.4400    0.0000 C   0  0  0  0  0  0  0  0  0  0  0  0
    2.0000    0.4400    0.0000 C   0  0  0  0  0  0  0  0  0  0  0  0
    2.8660   -1.0600    0.0000 C   0  0  0  0  0  0  0  0  0  0  0  0
    9.7942   -0.0600    0.0000 C   0  0  0  0  0  0  0  0  0  0  0  0
    9.7942   -1.0600    0.0000 C   0  0  0  0  0  0  0  0  0  0  0  0
   10.6603    0.4400    0.0000 C   0  0  0  0  0  0  0  0  0  0  0  0
   11.5263   -0.0600    0.0000 C   0  0  0  0  0  0  0  0  0  0  0  0
    5.8626    0.9149    0.0000 H   0  0  0  0  0  0  0  0  0  0  0  0
    5.0656    0.9149    0.0000 H   0  0  0  0  0  0  0  0  0  0  0  0
    4.1996   -0.5349    0.0000 H   0  0  0  0  0  0  0  0  0  0  0  0
    4.9966   -0.5349    0.0000 H   0  0  0  0  0  0  0  0  0  0  0  0
    7.1962    1.0600    0.0000 H   0  0  0  0  0  0  0  0  0  0  0  0
    3.7320    1.0600    0.0000 H   0  0  0  0  0  0  0  0  0  0  0  0
    7.6636   -0.5349    0.0000 H   0  0  0  0  0  0  0  0  0  0  0  0
    8.4607   -0.5349    0.0000 H   0  0  0  0  0  0  0  0  0  0  0  0
    5.7101   -1.0600    0.0000 H   0  0  0  0  0  0  0  0  0  0  0  0
    6.3301   -1.6800    0.0000 H   0  0  0  0  0  0  0  0  0  0  0  0
    6.9501   -1.0600    0.0000 H   0  0  0  0  0  0  0  0  0  0  0  0
    8.9282    1.0600    0.0000 H   0  0  0  0  0  0  0  0  0  0  0  0
    2.2460   -1.0600    0.0000 H   0  0  0  0  0  0  0  0  0  0  0  0
    2.8660   -1.6800    0.0000 H   0  0  0  0  0  0  0  0  0  0  0  0
    3.4860   -1.0600    0.0000 H   0  0  0  0  0  0  0  0  0  0  0  0
    2.3100    0.9769    0.0000 H   0  0  0  0  0  0  0  0  0  0  0  0
    1.4631    0.7500    0.0000 H   0  0  0  0  0  0  0  0  0  0  0  0
    1.6900   -0.0969    0.0000 H   0  0  0  0  0  0  0  0  0  0  0  0
    9.1742   -1.0600    0.0000 H   0  0  0  0  0  0  0  0  0  0  0  0
    9.7942   -1.6800    0.0000 H   0  0  0  0  0  0  0  0  0  0  0  0
   10.4142   -1.0600    0.0000 H   0  0  0  0  0  0  0  0  0  0  0  0
   10.6603    1.0600    0.0000 H   0  0  0  0  0  0  0  0  0  0  0  0
   11.5263   -0.6800    0.0000 H   0  0  0  0  0  0  0  0  0  0  0  0
   12.0632    0.2500    0.0000 H   0  0  0  0  0  0  0  0  0  0  0  0
  1  2  1  0  0  0  0
  1  3  1  0  0  0  0
  1 16  1  0  0  0  0
  1 17  1  0  0  0  0
  2  5  1  0  0  0  0
  2 18  1  0  0  0  0
  2 19  1  0  0  0  0
  3  4  2  0  0  0  0
  3  7  1  0  0  0  0
  4  6  1  0  0  0  0
  4 20  1  0  0  0  0
  5  8  2  0  0  0  0
  5 21  1  0  0  0  0
  6  9  1  0  0  0  0
  6 22  1  0  0  0  0
  6 23  1  0  0  0  0
  7 24  1  0  0  0  0
  7 25  1  0  0  0  0
  7 26  1  0  0  0  0
  8 10  1  0  0  0  0
  8 11  1  0  0  0  0
  9 12  2  0  0  0  0
  9 27  1  0  0  0  0
 10 31  1  0  0  0  0
 10 32  1  0  0  0  0
 10 33  1  0  0  0  0
 11 28  1  0  0  0  0
 11 29  1  0  0  0  0
 11 30  1  0  0  0  0
 12 13  1  0  0  0  0
 12 14  1  0  0  0  0
 13 34  1  0  0  0  0
 13 35  1  0  0  0  0
 13 36  1  0  0  0  0
 14 15  2  0  0  0  0
 14 37  1  0  0  0  0
 15 38  1  0  0  0  0
 15 39  1  0  0  0  0
M  END
> <PUBCHEM_COMPOUND_CID>
5281516

> <PUBCHEM_COMPOUND_CANONICALIZED>
1

> <PUBCHEM_CACTVS_COMPLEXITY>
270

> <PUBCHEM_CACTVS_HBOND_ACCEPTOR>
0

> <PUBCHEM_CACTVS_HBOND_DONOR>
0

> <PUBCHEM_CACTVS_ROTATABLE_BOND>
6

> <PUBCHEM_CACTVS_SUBSKEYS>
AAADceBwAAAAAAAAAAAAAAAAAAAAAAAAAAAAAAAAAAAAAAAAAAAAGAAAAAAADACAAAACAAAAAACAAiBCAAAAAAAgAAAICAAAAAgIAAIAAQAAAAAAgAAIgAIAAAAAAAAAAAAAAAAAAAAAAAAAAAAAAAAAAA==

> <PUBCHEM_IUPAC_OPENEYE_NAME>
(3~{E},6~{E})-3,7,11-trimethyldodeca-1,3,6,10-tetraene

> <PUBCHEM_IUPAC_CAS_NAME>
(3~{E},6~{E})-3,7,11-trimethyldodeca-1,3,6,10-tetraene

> <PUBCHEM_IUPAC_NAME>
(3~{E},6~{E})-3,7,11-trimethyldodeca-1,3,6,10-tetraene

> <PUBCHEM_IUPAC_SYSTEMATIC_NAME>
(3~{E},6~{E})-3,7,11-trimethyldodeca-1,3,6,10-tetraene

> <PUBCHEM_IUPAC_TRADITIONAL_NAME>
(3~{E},6~{E})-3,7,11-trimethyldodeca-1,3,6,10-tetraene

> <PUBCHEM_IUPAC_INCHI>
InChI=1S/C15H24/c1-6-14(4)10-8-12-15(5)11-7-9-13(2)3/h6,9-10,12H,1,7-8,11H2,2-5H3/b14-10+,15-12+

> <PUBCHEM_IUPAC_INCHIKEY>
CXENHBSYCFFKJS-VDQVFBMKSA-N

> <PUBCHEM_XLOGP3_AA>
6.1

> <PUBCHEM_EXACT_MASS>
204.188

> <PUBCHEM_MOLECULAR_FORMULA>
C15H24

> <PUBCHEM_MOLECULAR_WEIGHT>
204.357

> <PUBCHEM_OPENEYE_CAN_SMILES>
CC(=CCCC(=CCC=C(C)C=C)C)C

> <PUBCHEM_OPENEYE_ISO_SMILES>
CC(=CCC/C(=C/C/C=C(\C)/C=C)/C)C

> <PUBCHEM_CACTVS_TPSA>
0

> <PUBCHEM_MONOISOTOPIC_WEIGHT>
204.188

> <PUBCHEM_TOTAL_CHARGE>
0

> <PUBCHEM_HEAVY_ATOM_COUNT>
15

> <PUBCHEM_ATOM_DEF_STEREO_COUNT>
0

> <PUBCHEM_ATOM_UDEF_STEREO_COUNT>
0

> <PUBCHEM_BOND_DEF_STEREO_COUNT>
2

> <PUBCHEM_BOND_UDEF_STEREO_COUNT>
0

> <PUBCHEM_ISOTOPIC_ATOM_COUNT>
0

> <PUBCHEM_COMPONENT_COUNT>
1

> <PUBCHEM_CACTVS_TAUTO_COUNT>
-1

> <PUBCHEM_COORDINATE_TYPE>
1
5
255

$$$$
5281520
  -OEChem-02201912152D

 39 39  0     0  0  0  0  0  0999 V2000
    5.1980    0.4369    0.0000 C   0  0  0  0  0  0  0  0  0  0  0  0
    4.5981    1.3297    0.0000 C   0  0  0  0  0  0  0  0  0  0  0  0
    4.6980   -0.4291    0.0000 C   0  0  0  0  0  0  0  0  0  0  0  0
    5.9055    1.1436    0.0000 C   0  0  0  0  0  0  0  0  0  0  0  0
    6.1503    0.1319    0.0000 C   0  0  0  0  0  0  0  0  0  0  0  0
    3.7320    0.8297    0.0000 C   0  0  0  0  0  0  0  0  0  0  0  0
    2.8660    1.3297    0.0000 C   0  0  0  0  0  0  0  0  0  0  0  0
    2.0000    0.8297    0.0000 C   0  0  0  0  0  0  0  0  0  0  0  0
    5.1980   -1.2952    0.0000 C   0  0  0  0  0  0  0  0  0  0  0  0
    2.0000   -0.1703    0.0000 C   0  0  0  0  0  0  0  0  0  0  0  0
    4.3320   -1.7952    0.0000 C   0  0  0  0  0  0  0  0  0  0  0  0
    3.3660   -1.5363    0.0000 C   0  0  0  0  0  0  0  0  0  0  0  0
    2.8660   -0.6703    0.0000 C   0  0  0  0  0  0  0  0  0  0  0  0
    2.8660    2.3297    0.0000 C   0  0  0  0  0  0  0  0  0  0  0  0
    2.7573   -2.3297    0.0000 C   0  0  0  0  0  0  0  0  0  0  0  0
    5.1204    1.6637    0.0000 H   0  0  0  0  0  0  0  0  0  0  0  0
    4.2760    1.8595    0.0000 H   0  0  0  0  0  0  0  0  0  0  0  0
    4.0780   -0.4291    0.0000 H   0  0  0  0  0  0  0  0  0  0  0  0
    5.9612   -0.4586    0.0000 H   0  0  0  0  0  0  0  0  0  0  0  0
    6.7408   -0.0572    0.0000 H   0  0  0  0  0  0  0  0  0  0  0  0
    6.3436    0.7050    0.0000 H   0  0  0  0  0  0  0  0  0  0  0  0
    6.3441    1.5818    0.0000 H   0  0  0  0  0  0  0  0  0  0  0  0
    5.4673    1.5823    0.0000 H   0  0  0  0  0  0  0  0  0  0  0  0
    6.3394    0.7224    0.0000 H   0  0  0  0  0  0  0  0  0  0  0  0
    3.7320    0.2097    0.0000 H   0  0  0  0  0  0  0  0  0  0  0  0
    1.7880    1.4123    0.0000 H   0  0  0  0  0  0  0  0  0  0  0  0
    1.3894    0.7220    0.0000 H   0  0  0  0  0  0  0  0  0  0  0  0
    5.7968   -1.4556    0.0000 H   0  0  0  0  0  0  0  0  0  0  0  0
    1.3894   -0.0626    0.0000 H   0  0  0  0  0  0  0  0  0  0  0  0
    1.7880   -0.7529    0.0000 H   0  0  0  0  0  0  0  0  0  0  0  0
    4.0220   -2.3321    0.0000 H   0  0  0  0  0  0  0  0  0  0  0  0
    4.7704   -2.2336    0.0000 H   0  0  0  0  0  0  0  0  0  0  0  0
    3.3044   -0.2319    0.0000 H   0  0  0  0  0  0  0  0  0  0  0  0
    3.4860    2.3297    0.0000 H   0  0  0  0  0  0  0  0  0  0  0  0
    2.8660    2.9497    0.0000 H   0  0  0  0  0  0  0  0  0  0  0  0
    2.2460    2.3297    0.0000 H   0  0  0  0  0  0  0  0  0  0  0  0
    2.2654   -1.9523    0.0000 H   0  0  0  0  0  0  0  0  0  0  0  0
    2.3798   -2.8216    0.0000 H   0  0  0  0  0  0  0  0  0  0  0  0
    3.2491   -2.7071    0.0000 H   0  0  0  0  0  0  0  0  0  0  0  0
  1  2  1  0  0  0  0
  1  3  1  0  0  0  0
  1  4  1  0  0  0  0
  1  5  1  0  0  0  0
  2  6  1  0  0  0  0
  2 16  1  0  0  0  0
  2 17  1  0  0  0  0
  3  9  2  0  0  0  0
  3 18  1  0  0  0  0
  4 21  1  0  0  0  0
  4 22  1  0  0  0  0
  4 23  1  0  0  0  0
  5 19  1  0  0  0  0
  5 20  1  0  0  0  0
  5 24  1  0  0  0  0
  6  7  2  0  0  0  0
  6 25  1  0  0  0  0
  7  8  1  0  0  0  0
  7 14  1  0  0  0  0
  8 10  1  0  0  0  0
  8 26  1  0  0  0  0
  8 27  1  0  0  0  0
  9 11  1  0  0  0  0
  9 28  1  0  0  0  0
 10 13  1  0  0  0  0
 10 29  1  0  0  0  0
 10 30  1  0  0  0  0
 11 12  1  0  0  0  0
 11 31  1  0  0  0  0
 11 32  1  0  0  0  0
 12 13  2  0  0  0  0
 12 15  1  0  0  0  0
 13 33  1  0  0  0  0
 14 34  1  0  0  0  0
 14 35  1  0  0  0  0
 14 36  1  0  0  0  0
 15 37  1  0  0  0  0
 15 38  1  0  0  0  0
 15 39  1  0  0  0  0
M  END
> <PUBCHEM_COMPOUND_CID>
5281520

> <PUBCHEM_COMPOUND_CANONICALIZED>
1

> <PUBCHEM_CACTVS_COMPLEXITY>
287

> <PUBCHEM_CACTVS_HBOND_ACCEPTOR>
0

> <PUBCHEM_CACTVS_HBOND_DONOR>
0

> <PUBCHEM_CACTVS_ROTATABLE_BOND>
0

> <PUBCHEM_CACTVS_SUBSKEYS>
AAADceBwAAAAAAAAAAAAAAAAAAAAAAAAAAAAAAAAAAAAAAAAAAAAGAAAAAAADgCAAAACAAAAAACAAiBCAAAAAAAgAAAICAAAAAgAAAIAAQAAAAAAgAAIAAIAAAAJAAAAAAAAAAAAAAAAAAAAAAAAAAAAAA==

> <PUBCHEM_IUPAC_OPENEYE_NAME>
(1~{E},4~{E},8~{E})-2,6,6,9-tetramethylcycloundeca-1,4,8-triene

> <PUBCHEM_IUPAC_CAS_NAME>
(1~{E},4~{E},8~{E})-2,6,6,9-tetramethylcycloundeca-1,4,8-triene

> <PUBCHEM_IUPAC_NAME>
(1~{E},4~{E},8~{E})-2,6,6,9-tetramethylcycloundeca-1,4,8-triene

> <PUBCHEM_IUPAC_SYSTEMATIC_NAME>
(1~{E},4~{E},8~{E})-2,6,6,9-tetramethylcycloundeca-1,4,8-triene

> <PUBCHEM_IUPAC_TRADITIONAL_NAME>
(1~{E},4~{E},8~{E})-2,6,6,9-tetramethylcycloundeca-1,4,8-triene

> <PUBCHEM_IUPAC_INCHI>
InChI=1S/C15H24/c1-13-7-5-8-14(2)10-12-15(3,4)11-6-9-13/h6-7,10-11H,5,8-9,12H2,1-4H3/b11-6+,13-7+,14-10+

> <PUBCHEM_IUPAC_INCHIKEY>
FAMPSKZZVDUYOS-HRGUGZIWSA-N

> <PUBCHEM_XLOGP3_AA>
4.5

> <PUBCHEM_EXACT_MASS>
204.188

> <PUBCHEM_MOLECULAR_FORMULA>
C15H24

> <PUBCHEM_MOLECULAR_WEIGHT>
204.357

> <PUBCHEM_OPENEYE_CAN_SMILES>
CC1=CCC(C=CCC(=CCC1)C)(C)C

> <PUBCHEM_OPENEYE_ISO_SMILES>
C/C/1=C\CC(/C=C/C/C(=C/CC1)/C)(C)C

> <PUBCHEM_CACTVS_TPSA>
0

> <PUBCHEM_MONOISOTOPIC_WEIGHT>
204.188

> <PUBCHEM_TOTAL_CHARGE>
0

> <PUBCHEM_HEAVY_ATOM_COUNT>
15

> <PUBCHEM_ATOM_DEF_STEREO_COUNT>
0

> <PUBCHEM_ATOM_UDEF_STEREO_COUNT>
0

> <PUBCHEM_BOND_DEF_STEREO_COUNT>
3

> <PUBCHEM_BOND_UDEF_STEREO_COUNT>
0

> <PUBCHEM_ISOTOPIC_ATOM_COUNT>
0

> <PUBCHEM_COMPONENT_COUNT>
1

> <PUBCHEM_CACTVS_TAUTO_COUNT>
-1

> <PUBCHEM_COORDINATE_TYPE>
1
5
255

$$$$
12306047
  -OEChem-02201912152D

 39 40  0     1  0  0  0  0  0999 V2000
    3.7320   -0.2500    0.0000 C   0  0  1  0  0  0  0  0  0  0  0  0
    2.8660   -0.7500    0.0000 C   0  0  1  0  0  0  0  0  0  0  0  0
    3.7320    0.7500    0.0000 C   0  0  2  0  0  0  0  0  0  0  0  0
    4.6260    1.2847    0.0000 C   0  0  0  0  0  0  0  0  0  0  0  0
    2.0000   -0.2500    0.0000 C   0  0  0  0  0  0  0  0  0  0  0  0
    2.8660   -1.7500    0.0000 C   0  0  0  0  0  0  0  0  0  0  0  0
    2.8660    1.2500    0.0000 C   0  0  0  0  0  0  0  0  0  0  0  0
    4.6260   -0.7847    0.0000 C   0  0  0  0  0  0  0  0  0  0  0  0
    5.5321    0.7708    0.0000 C   0  0  0  0  0  0  0  0  0  0  0  0
    2.0000    0.7500    0.0000 C   0  0  0  0  0  0  0  0  0  0  0  0
    5.5321   -0.2708    0.0000 C   0  0  0  0  0  0  0  0  0  0  0  0
    2.0000   -2.2500    0.0000 C   0  0  0  0  0  0  0  0  0  0  0  0
    3.7320   -2.2500    0.0000 C   0  0  0  0  0  0  0  0  0  0  0  0
    2.8660    2.2500    0.0000 C   0  0  0  0  0  0  0  0  0  0  0  0
    6.3961   -0.7742    0.0000 C   0  0  0  0  0  0  0  0  0  0  0  0
    3.7255   -1.1000    0.0000 H   0  0  0  0  0  0  0  0  0  0  0  0
    2.3291   -1.0600    0.0000 H   0  0  0  0  0  0  0  0  0  0  0  0
    3.7255    1.6000    0.0000 H   0  0  0  0  0  0  0  0  0  0  0  0
    5.0196    1.7637    0.0000 H   0  0  0  0  0  0  0  0  0  0  0  0
    4.2214    1.7544    0.0000 H   0  0  0  0  0  0  0  0  0  0  0  0
    1.3894   -0.1423    0.0000 H   0  0  0  0  0  0  0  0  0  0  0  0
    1.7880   -0.8326    0.0000 H   0  0  0  0  0  0  0  0  0  0  0  0
    2.8660   -2.3700    0.0000 H   0  0  0  0  0  0  0  0  0  0  0  0
    4.6188   -1.4046    0.0000 H   0  0  0  0  0  0  0  0  0  0  0  0
    6.1429    0.6647    0.0000 H   0  0  0  0  0  0  0  0  0  0  0  0
    5.7411    1.3545    0.0000 H   0  0  0  0  0  0  0  0  0  0  0  0
    1.4631    1.0600    0.0000 H   0  0  0  0  0  0  0  0  0  0  0  0
    3.4220   -2.7869    0.0000 H   0  0  0  0  0  0  0  0  0  0  0  0
    4.2690   -2.5600    0.0000 H   0  0  0  0  0  0  0  0  0  0  0  0
    4.0420   -1.7131    0.0000 H   0  0  0  0  0  0  0  0  0  0  0  0
    1.6900   -1.7131    0.0000 H   0  0  0  0  0  0  0  0  0  0  0  0
    1.4631   -2.5600    0.0000 H   0  0  0  0  0  0  0  0  0  0  0  0
    2.3100   -2.7869    0.0000 H   0  0  0  0  0  0  0  0  0  0  0  0
    3.4860    2.2500    0.0000 H   0  0  0  0  0  0  0  0  0  0  0  0
    2.8660    2.8700    0.0000 H   0  0  0  0  0  0  0  0  0  0  0  0
    2.2460    2.2500    0.0000 H   0  0  0  0  0  0  0  0  0  0  0  0
    6.0841   -1.3099    0.0000 H   0  0  0  0  0  0  0  0  0  0  0  0
    6.9319   -1.0862    0.0000 H   0  0  0  0  0  0  0  0  0  0  0  0
    6.7082   -0.2384    0.0000 H   0  0  0  0  0  0  0  0  0  0  0  0
  1  2  1  0  0  0  0
  1  3  1  0  0  0  0
  1  8  1  0  0  0  0
  1 16  1  6  0  0  0
  2  5  1  0  0  0  0
  2  6  1  6  0  0  0
  2 17  1  0  0  0  0
  3  4  1  0  0  0  0
  3  7  1  0  0  0  0
  3 18  1  6  0  0  0
  4  9  1  0  0  0  0
  4 19  1  0  0  0  0
  4 20  1  0  0  0  0
  5 10  1  0  0  0  0
  5 21  1  0  0  0  0
  5 22  1  0  0  0  0
  6 12  1  0  0  0  0
  6 13  1  0  0  0  0
  6 23  1  0  0  0  0
  7 10  2  0  0  0  0
  7 14  1  0  0  0  0
  8 11  2  0  0  0  0
  8 24  1  0  0  0  0
  9 11  1  0  0  0  0
  9 25  1  0  0  0  0
  9 26  1  0  0  0  0
 10 27  1  0  0  0  0
 11 15  1  0  0  0  0
 12 31  1  0  0  0  0
 12 32  1  0  0  0  0
 12 33  1  0  0  0  0
 13 28  1  0  0  0  0
 13 29  1  0  0  0  0
 13 30  1  0  0  0  0
 14 34  1  0  0  0  0
 14 35  1  0  0  0  0
 14 36  1  0  0  0  0
 15 37  1  0  0  0  0
 15 38  1  0  0  0  0
 15 39  1  0  0  0  0
M  END
> <PUBCHEM_COMPOUND_CID>
12306047

> <PUBCHEM_COMPOUND_CANONICALIZED>
1

> <PUBCHEM_CACTVS_COMPLEXITY>
293

> <PUBCHEM_CACTVS_HBOND_ACCEPTOR>
0

> <PUBCHEM_CACTVS_HBOND_DONOR>
0

> <PUBCHEM_CACTVS_ROTATABLE_BOND>
1

> <PUBCHEM_CACTVS_SUBSKEYS>
AAADceBwAAAAAAAAAAAAAAAAAAAAAAAAAAAgQAAAAAAAAACAAAAAGAAAAAAADQCAAAACAAAAAACAAiBCAAAAAAAgAAAACAAAAAgAAAIAAQAAAAAAgAAIAAMAgMAOgAAAAAAAAAAAAAAAAAAAAAAAAAAAAA==

> <PUBCHEM_IUPAC_OPENEYE_NAME>
(1~{S},4~{a}~{S},8~{a}~{R})-1-isopropyl-4,7-dimethyl-1,2,4~{a},5,6,8~{a}-hexahydronaphthalene

> <PUBCHEM_IUPAC_CAS_NAME>
(1~{S},4~{a}~{S},8~{a}~{R})-4,7-dimethyl-1-propan-2-yl-1,2,4~{a},5,6,8~{a}-hexahydronaphthalene

> <PUBCHEM_IUPAC_NAME>
(1~{S},4~{a}~{S},8~{a}~{R})-4,7-dimethyl-1-propan-2-yl-1,2,4~{a},5,6,8~{a}-hexahydronaphthalene

> <PUBCHEM_IUPAC_SYSTEMATIC_NAME>
(1~{S},4~{a}~{S},8~{a}~{R})-4,7-dimethyl-1-propan-2-yl-1,2,4~{a},5,6,8~{a}-hexahydronaphthalene

> <PUBCHEM_IUPAC_TRADITIONAL_NAME>
(1~{S},4~{a}~{S},8~{a}~{R})-1-isopropyl-4,7-dimethyl-1,2,4~{a},5,6,8~{a}-hexahydronaphthalene

> <PUBCHEM_IUPAC_INCHI>
InChI=1S/C15H24/c1-10(2)13-8-6-12(4)14-7-5-11(3)9-15(13)14/h6,9-10,13-15H,5,7-8H2,1-4H3/t13-,14+,15-/m0/s1

> <PUBCHEM_IUPAC_INCHIKEY>
QMAYBMKBYCGXDH-ZNMIVQPWSA-N

> <PUBCHEM_XLOGP3_AA>
4.1

> <PUBCHEM_EXACT_MASS>
204.188

> <PUBCHEM_MOLECULAR_FORMULA>
C15H24

> <PUBCHEM_MOLECULAR_WEIGHT>
204.357

> <PUBCHEM_OPENEYE_CAN_SMILES>
CC1=CC2C(CC1)C(=CCC2C(C)C)C

> <PUBCHEM_OPENEYE_ISO_SMILES>
CC1=C[C@@H]2[C@H](CC1)C(=CC[C@H]2C(C)C)C

> <PUBCHEM_CACTVS_TPSA>
0

> <PUBCHEM_MONOISOTOPIC_WEIGHT>
204.188

> <PUBCHEM_TOTAL_CHARGE>
0

> <PUBCHEM_HEAVY_ATOM_COUNT>
15

> <PUBCHEM_ATOM_DEF_STEREO_COUNT>
3

> <PUBCHEM_ATOM_UDEF_STEREO_COUNT>
0

> <PUBCHEM_BOND_DEF_STEREO_COUNT>
0

> <PUBCHEM_BOND_UDEF_STEREO_COUNT>
0

> <PUBCHEM_ISOTOPIC_ATOM_COUNT>
0

> <PUBCHEM_COMPONENT_COUNT>
1

> <PUBCHEM_CACTVS_TAUTO_COUNT>
-1

> <PUBCHEM_COORDINATE_TYPE>
1
5
255

> <PUBCHEM_BONDANNOTATIONS>
1  16  6
2  6  6
3  18  6

$$$$
62566
  -OEChem-02201912152D

 39 41  0     1  0  0  0  0  0999 V2000
    5.3212   -1.1530    0.0000 C   0  0  2  0  0  0  0  0  0  0  0  0
    4.6141   -0.4459    0.0000 C   0  0  1  0  0  0  0  0  0  0  0  0
    6.0283   -0.4459    0.0000 C   0  0  1  0  0  0  0  0  0  0  0  0
    5.3212    0.2612    0.0000 C   0  0  2  0  0  0  0  0  0  0  0  0
    3.7295   -0.8995    0.0000 C   0  0  1  0  0  0  0  0  0  0  0  0
    4.8676   -2.0376    0.0000 C   0  0  0  0  0  0  0  0  0  0  0  0
    3.8859   -1.8812    0.0000 C   0  0  0  0  0  0  0  0  0  0  0  0
    6.9128    0.0077    0.0000 C   0  0  0  0  0  0  0  0  0  0  0  0
    5.7748    1.1458    0.0000 C   0  0  0  0  0  0  0  0  0  0  0  0
    6.0283   -1.8601    0.0000 C   0  0  0  0  0  0  0  0  0  0  0  0
    6.7565    0.9894    0.0000 C   0  0  0  0  0  0  0  0  0  0  0  0
    2.8377   -0.4470    0.0000 C   0  0  0  0  0  0  0  0  0  0  0  0
    5.3223    2.0376    0.0000 C   0  0  0  0  0  0  0  0  0  0  0  0
    2.0000   -0.9931    0.0000 C   0  0  0  0  0  0  0  0  0  0  0  0
    2.7837    0.5515    0.0000 C   0  0  0  0  0  0  0  0  0  0  0  0
    4.1136    0.2411    0.0000 H   0  0  0  0  0  0  0  0  0  0  0  0
    6.5288   -1.1329    0.0000 H   0  0  0  0  0  0  0  0  0  0  0  0
    4.6342    0.7617    0.0000 H   0  0  0  0  0  0  0  0  0  0  0  0
    3.2284   -1.2646    0.0000 H   0  0  0  0  0  0  0  0  0  0  0  0
    4.7062   -2.6362    0.0000 H   0  0  0  0  0  0  0  0  0  0  0  0
    5.4460   -2.2609    0.0000 H   0  0  0  0  0  0  0  0  0  0  0  0
    3.2667   -1.9138    0.0000 H   0  0  0  0  0  0  0  0  0  0  0  0
    3.8532   -2.5003    0.0000 H   0  0  0  0  0  0  0  0  0  0  0  0
    7.1362   -0.5707    0.0000 H   0  0  0  0  0  0  0  0  0  0  0  0
    7.5115    0.1690    0.0000 H   0  0  0  0  0  0  0  0  0  0  0  0
    5.5899   -2.2985    0.0000 H   0  0  0  0  0  0  0  0  0  0  0  0
    6.4667   -2.2985    0.0000 H   0  0  0  0  0  0  0  0  0  0  0  0
    6.4667   -1.4217    0.0000 H   0  0  0  0  0  0  0  0  0  0  0  0
    7.3756    1.0220    0.0000 H   0  0  0  0  0  0  0  0  0  0  0  0
    6.7891    1.6086    0.0000 H   0  0  0  0  0  0  0  0  0  0  0  0
    3.3571   -0.1085    0.0000 H   0  0  0  0  0  0  0  0  0  0  0  0
    5.6609    2.5570    0.0000 H   0  0  0  0  0  0  0  0  0  0  0  0
    4.7032    2.0711    0.0000 H   0  0  0  0  0  0  0  0  0  0  0  0
    1.6614   -0.4737    0.0000 H   0  0  0  0  0  0  0  0  0  0  0  0
    1.4806   -1.3317    0.0000 H   0  0  0  0  0  0  0  0  0  0  0  0
    2.3386   -1.5125    0.0000 H   0  0  0  0  0  0  0  0  0  0  0  0
    3.4028    0.5850    0.0000 H   0  0  0  0  0  0  0  0  0  0  0  0
    2.7501    1.1706    0.0000 H   0  0  0  0  0  0  0  0  0  0  0  0
    2.1646    0.5180    0.0000 H   0  0  0  0  0  0  0  0  0  0  0  0
  1  2  1  0  0  0  0
  1  3  1  0  0  0  0
  1  6  1  0  0  0  0
  1 10  1  1  0  0  0
  2  4  1  0  0  0  0
  2  5  1  0  0  0  0
  2 16  1  1  0  0  0
  3  4  1  0  0  0  0
  3  8  1  0  0  0  0
  3 17  1  6  0  0  0
  4  9  1  0  0  0  0
  4 18  1  6  0  0  0
  5  7  1  0  0  0  0
  5 12  1  1  0  0  0
  5 19  1  0  0  0  0
  6  7  1  0  0  0  0
  6 20  1  0  0  0  0
  6 21  1  0  0  0  0
  7 22  1  0  0  0  0
  7 23  1  0  0  0  0
  8 11  1  0  0  0  0
  8 24  1  0  0  0  0
  8 25  1  0  0  0  0
  9 11  1  0  0  0  0
  9 13  2  0  0  0  0
 10 26  1  0  0  0  0
 10 27  1  0  0  0  0
 10 28  1  0  0  0  0
 11 29  1  0  0  0  0
 11 30  1  0  0  0  0
 12 14  1  0  0  0  0
 12 15  1  0  0  0  0
 12 31  1  0  0  0  0
 13 32  1  0  0  0  0
 13 33  1  0  0  0  0
 14 34  1  0  0  0  0
 14 35  1  0  0  0  0
 14 36  1  0  0  0  0
 15 37  1  0  0  0  0
 15 38  1  0  0  0  0
 15 39  1  0  0  0  0
M  END
> <PUBCHEM_COMPOUND_CID>
62566

> <PUBCHEM_COMPOUND_CANONICALIZED>
1

> <PUBCHEM_CACTVS_COMPLEXITY>
301

> <PUBCHEM_CACTVS_HBOND_ACCEPTOR>
0

> <PUBCHEM_CACTVS_HBOND_DONOR>
0

> <PUBCHEM_CACTVS_ROTATABLE_BOND>
1

> <PUBCHEM_CACTVS_SUBSKEYS>
AAADceBwAAAAAAAAAAAAAAAAAABgAYMAAAAAAAAABgwAAAAAAAAAGAAAAAAADwCAAAACAAAAAACAAgBCAAAAAAAgAAAAAAAAAAgAAAIAAQAAAAAAgAAAAAEAgMAPgAAAAAAAAAAAAAAAAAAAAQAACAAAAA==

> <PUBCHEM_IUPAC_OPENEYE_NAME>
(1~{S},2~{R},6~{S},7~{R},8~{S})-8-isopropyl-1-methyl-5-methylene-tricyclo[5.3.0.0^{2,6}]decane

> <PUBCHEM_IUPAC_CAS_NAME>
(1~{S},2~{R},6~{S},7~{R},8~{S})-1-methyl-5-methylene-8-propan-2-yltricyclo[5.3.0.0^{2,6}]decane

> <PUBCHEM_IUPAC_NAME>
(1~{S},2~{R},6~{S},7~{R},8~{S})-1-methyl-5-methylidene-8-propan-2-yltricyclo[5.3.0.0^{2,6}]decane

> <PUBCHEM_IUPAC_SYSTEMATIC_NAME>
(1~{S},2~{R},6~{S},7~{R},8~{S})-1-methyl-5-methylidene-8-propan-2-yl-tricyclo[5.3.0.0^{2,6}]decane

> <PUBCHEM_IUPAC_TRADITIONAL_NAME>
(1~{S},2~{R},6~{S},7~{R},8~{S})-8-isopropyl-1-methyl-5-methylene-tricyclo[5.3.0.0^{2,6}]decane

> <PUBCHEM_IUPAC_INCHI>
InChI=1S/C15H24/c1-9(2)11-7-8-15(4)12-6-5-10(3)13(12)14(11)15/h9,11-14H,3,5-8H2,1-2,4H3/t11-,12+,13-,14+,15-/m0/s1

> <PUBCHEM_IUPAC_INCHIKEY>
YIRAHEODBQONHI-ZQNQSHIBSA-N

> <PUBCHEM_XLOGP3_AA>
4.7

> <PUBCHEM_EXACT_MASS>
204.188

> <PUBCHEM_MOLECULAR_FORMULA>
C15H24

> <PUBCHEM_MOLECULAR_WEIGHT>
204.357

> <PUBCHEM_OPENEYE_CAN_SMILES>
CC(C)C1CCC2(C1C3C2CCC3=C)C

> <PUBCHEM_OPENEYE_ISO_SMILES>
CC(C)[C@@H]1CC[C@@]2([C@H]1[C@@H]3[C@H]2CCC3=C)C

> <PUBCHEM_CACTVS_TPSA>
0

> <PUBCHEM_MONOISOTOPIC_WEIGHT>
204.188

> <PUBCHEM_TOTAL_CHARGE>
0

> <PUBCHEM_HEAVY_ATOM_COUNT>
15

> <PUBCHEM_ATOM_DEF_STEREO_COUNT>
5

> <PUBCHEM_ATOM_UDEF_STEREO_COUNT>
0

> <PUBCHEM_BOND_DEF_STEREO_COUNT>
0

> <PUBCHEM_BOND_UDEF_STEREO_COUNT>
0

> <PUBCHEM_ISOTOPIC_ATOM_COUNT>
0

> <PUBCHEM_COMPONENT_COUNT>
1

> <PUBCHEM_CACTVS_TAUTO_COUNT>
1

> <PUBCHEM_COORDINATE_TYPE>
1
5
255

> <PUBCHEM_BONDANNOTATIONS>
1  10  5
2  16  5
3  17  6
4  18  6
5  12  5

$$$$
11106485
  -OEChem-02201912152D

 39 41  0     1  0  0  0  0  0999 V2000
    4.0430   -0.7073    0.0000 C   0  0  1  0  0  0  0  0  0  0  0  0
    3.1420   -0.2734    0.0000 C   0  0  2  0  0  0  0  0  0  0  0  0
    2.9195    0.7015    0.0000 C   0  0  0  0  0  0  0  0  0  0  0  0
    3.5430    1.4834    0.0000 C   0  0  1  0  0  0  0  0  0  0  0  0
    4.1499    0.4695    0.0000 C   0  0  0  0  0  0  0  0  0  0  0  0
    3.9070   -1.6920    0.0000 C   0  0  1  0  0  0  0  0  0  0  0  0
    2.4569   -0.9937    0.0000 C   0  0  0  0  0  0  0  0  0  0  0  0
    4.9440   -0.2734    0.0000 C   0  0  0  0  0  0  0  0  0  0  0  0
    2.9288   -1.8687    0.0000 C   0  0  0  0  0  0  0  0  0  0  0  0
    4.5430    1.4834    0.0000 C   0  0  0  0  0  0  0  0  0  0  0  0
    5.1665    0.7015    0.0000 C   0  0  0  0  0  0  0  0  0  0  0  0
    2.2616    1.4546    0.0000 C   0  0  0  0  0  0  0  0  0  0  0  0
    2.0000    0.3085    0.0000 C   0  0  0  0  0  0  0  0  0  0  0  0
    4.6286   -2.3843    0.0000 C   0  0  0  0  0  0  0  0  0  0  0  0
    4.9769    2.3843    0.0000 C   0  0  0  0  0  0  0  0  0  0  0  0
    2.3762    0.0954    0.0000 H   0  0  0  0  0  0  0  0  0  0  0  0
    3.3539    2.3120    0.0000 H   0  0  0  0  0  0  0  0  0  0  0  0
    4.7199    0.2257    0.0000 H   0  0  0  0  0  0  0  0  0  0  0  0
    4.5577    0.9365    0.0000 H   0  0  0  0  0  0  0  0  0  0  0  0
    3.7279   -2.2856    0.0000 H   0  0  0  0  0  0  0  0  0  0  0  0
    2.0551   -0.5216    0.0000 H   0  0  0  0  0  0  0  0  0  0  0  0
    1.9452   -1.3437    0.0000 H   0  0  0  0  0  0  0  0  0  0  0  0
    5.0820   -0.8779    0.0000 H   0  0  0  0  0  0  0  0  0  0  0  0
    5.5640   -0.2734    0.0000 H   0  0  0  0  0  0  0  0  0  0  0  0
    2.3551   -2.1040    0.0000 H   0  0  0  0  0  0  0  0  0  0  0  0
    3.1025   -2.4638    0.0000 H   0  0  0  0  0  0  0  0  0  0  0  0
    5.7251    0.4325    0.0000 H   0  0  0  0  0  0  0  0  0  0  0  0
    5.5531    1.1863    0.0000 H   0  0  0  0  0  0  0  0  0  0  0  0
    1.7563    0.8786    0.0000 H   0  0  0  0  0  0  0  0  0  0  0  0
    1.4299    0.0648    0.0000 H   0  0  0  0  0  0  0  0  0  0  0  0
    2.2437   -0.2616    0.0000 H   0  0  0  0  0  0  0  0  0  0  0  0
    2.7285    1.8625    0.0000 H   0  0  0  0  0  0  0  0  0  0  0  0
    1.8537    1.9215    0.0000 H   0  0  0  0  0  0  0  0  0  0  0  0
    1.7947    1.0467    0.0000 H   0  0  0  0  0  0  0  0  0  0  0  0
    4.1994   -2.8317    0.0000 H   0  0  0  0  0  0  0  0  0  0  0  0
    5.0760   -2.8136    0.0000 H   0  0  0  0  0  0  0  0  0  0  0  0
    5.0578   -1.9369    0.0000 H   0  0  0  0  0  0  0  0  0  0  0  0
    5.5952    2.4307    0.0000 H   0  0  0  0  0  0  0  0  0  0  0  0
    4.6276    2.8966    0.0000 H   0  0  0  0  0  0  0  0  0  0  0  0
  1  2  1  0  0  0  0
  1  5  1  1  0  0  0
  1  6  1  0  0  0  0
  1  8  1  0  0  0  0
  2  3  1  0  0  0  0
  2  7  1  0  0  0  0
  2 16  1  6  0  0  0
  3  4  1  0  0  0  0
  3 12  1  0  0  0  0
  3 13  1  0  0  0  0
  4  5  1  0  0  0  0
  4 10  1  0  0  0  0
  4 17  1  1  0  0  0
  5 18  1  0  0  0  0
  5 19  1  0  0  0  0
  6  9  1  0  0  0  0
  6 14  1  6  0  0  0
  6 20  1  0  0  0  0
  7  9  1  0  0  0  0
  7 21  1  0  0  0  0
  7 22  1  0  0  0  0
  8 11  1  0  0  0  0
  8 23  1  0  0  0  0
  8 24  1  0  0  0  0
  9 25  1  0  0  0  0
  9 26  1  0  0  0  0
 10 11  1  0  0  0  0
 10 15  2  0  0  0  0
 11 27  1  0  0  0  0
 11 28  1  0  0  0  0
 12 32  1  0  0  0  0
 12 33  1  0  0  0  0
 12 34  1  0  0  0  0
 13 29  1  0  0  0  0
 13 30  1  0  0  0  0
 13 31  1  0  0  0  0
 14 35  1  0  0  0  0
 14 36  1  0  0  0  0
 14 37  1  0  0  0  0
 15 38  1  0  0  0  0
 15 39  1  0  0  0  0
M  END
> <PUBCHEM_COMPOUND_CID>
11106485

> <PUBCHEM_COMPOUND_CANONICALIZED>
1

> <PUBCHEM_CACTVS_COMPLEXITY>
312

> <PUBCHEM_CACTVS_HBOND_ACCEPTOR>
0

> <PUBCHEM_CACTVS_HBOND_DONOR>
0

> <PUBCHEM_CACTVS_ROTATABLE_BOND>
0

> <PUBCHEM_CACTVS_SUBSKEYS>
AAADceBwAAAAAAAAAAAAAAAAAAAAAYMAAAAwAAAABgAYAADAAAAAGAAAAAAADwCAAAACAAAAAACAAgBCAAAAAAAgAAAAAAAAAAgAAAIAAQAAAAAAgAAAAAEAgMAPgAAAAAAAAAAAAAQAAAAAAQAACAAAAA==

> <PUBCHEM_IUPAC_OPENEYE_NAME>
(1~{S},2~{R},5~{S},7~{S})-2,6,6-trimethyl-8-methylene-tricyclo[5.3.1.0^{1,5}]undecane

> <PUBCHEM_IUPAC_CAS_NAME>
(1~{S},2~{R},5~{S},7~{S})-2,6,6-trimethyl-8-methylenetricyclo[5.3.1.0^{1,5}]undecane

> <PUBCHEM_IUPAC_NAME>
(1~{S},2~{R},5~{S},7~{S})-2,6,6-trimethyl-8-methylidenetricyclo[5.3.1.0^{1,5}]undecane

> <PUBCHEM_IUPAC_SYSTEMATIC_NAME>
(1~{S},2~{R},5~{S},7~{S})-2,6,6-trimethyl-8-methylidene-tricyclo[5.3.1.0^{1,5}]undecane

> <PUBCHEM_IUPAC_TRADITIONAL_NAME>
(1~{S},2~{R},5~{S},7~{S})-2,6,6-trimethyl-8-methylene-tricyclo[5.3.1.0^{1,5}]undecane

> <PUBCHEM_IUPAC_INCHI>
InChI=1S/C15H24/c1-10-7-8-15-9-12(10)14(3,4)13(15)6-5-11(15)2/h11-13H,1,5-9H2,2-4H3/t11-,12+,13+,15+/m1/s1

> <PUBCHEM_IUPAC_INCHIKEY>
DYLPEFGBWGEFBB-OSFYFWSMSA-N

> <PUBCHEM_XLOGP3_AA>
4.9

> <PUBCHEM_EXACT_MASS>
204.188

> <PUBCHEM_MOLECULAR_FORMULA>
C15H24

> <PUBCHEM_MOLECULAR_WEIGHT>
204.357

> <PUBCHEM_OPENEYE_CAN_SMILES>
CC1CCC2C13CCC(=C)C(C3)C2(C)C

> <PUBCHEM_OPENEYE_ISO_SMILES>
C[C@@H]1CC[C@@H]2[C@]13CCC(=C)[C@H](C3)C2(C)C

> <PUBCHEM_CACTVS_TPSA>
0

> <PUBCHEM_MONOISOTOPIC_WEIGHT>
204.188

> <PUBCHEM_TOTAL_CHARGE>
0

> <PUBCHEM_HEAVY_ATOM_COUNT>
15

> <PUBCHEM_ATOM_DEF_STEREO_COUNT>
4

> <PUBCHEM_ATOM_UDEF_STEREO_COUNT>
0

> <PUBCHEM_BOND_DEF_STEREO_COUNT>
0

> <PUBCHEM_BOND_UDEF_STEREO_COUNT>
0

> <PUBCHEM_ISOTOPIC_ATOM_COUNT>
0

> <PUBCHEM_COMPONENT_COUNT>
1

> <PUBCHEM_CACTVS_TAUTO_COUNT>
1

> <PUBCHEM_COORDINATE_TYPE>
1
5
255

> <PUBCHEM_BONDANNOTATIONS>
1  5  5
2  16  6
4  17  5
6  14  6

$$$$
442353
  -OEChem-02201912152D

 39 40  0     1  0  0  0  0  0999 V2000
    3.8660    0.5000    0.0000 C   0  0  1  0  0  0  0  0  0  0  0  0
    3.0000    1.0000    0.0000 C   0  0  0  0  0  0  0  0  0  0  0  0
    3.0000    2.0000    0.0000 C   0  0  0  0  0  0  0  0  0  0  0  0
    4.7320   -0.0000    0.0000 C   0  0  0  0  0  0  0  0  0  0  0  0
    3.0000   -0.0000    0.0000 C   0  0  0  0  0  0  0  0  0  0  0  0
    4.7320    1.0000    0.0000 C   0  0  0  0  0  0  0  0  0  0  0  0
    3.8660    2.5000    0.0000 C   0  0  0  0  0  0  0  0  0  0  0  0
    4.7320    2.0000    0.0000 C   0  0  0  0  0  0  0  0  0  0  0  0
    2.0000    1.0000    0.0000 C   0  0  0  0  0  0  0  0  0  0  0  0
    2.2340    0.3572    0.0000 C   0  0  0  0  0  0  0  0  0  0  0  0
    4.7320   -1.0000    0.0000 C   0  0  0  0  0  0  0  0  0  0  0  0
    3.0000   -1.0000    0.0000 C   0  0  0  0  0  0  0  0  0  0  0  0
    3.8660   -1.5000    0.0000 C   0  0  0  0  0  0  0  0  0  0  0  0
    5.5981    0.5000    0.0000 C   0  0  0  0  0  0  0  0  0  0  0  0
    3.8660   -2.5000    0.0000 C   0  0  0  0  0  0  0  0  0  0  0  0
    2.7880    2.5826    0.0000 H   0  0  0  0  0  0  0  0  0  0  0  0
    2.3894    1.8923    0.0000 H   0  0  0  0  0  0  0  0  0  0  0  0
    5.3426   -0.1077    0.0000 H   0  0  0  0  0  0  0  0  0  0  0  0
    4.9441    0.5826    0.0000 H   0  0  0  0  0  0  0  0  0  0  0  0
    2.7880    0.5826    0.0000 H   0  0  0  0  0  0  0  0  0  0  0  0
    2.3894   -0.1077    0.0000 H   0  0  0  0  0  0  0  0  0  0  0  0
    4.2646    2.9750    0.0000 H   0  0  0  0  0  0  0  0  0  0  0  0
    3.4675    2.9750    0.0000 H   0  0  0  0  0  0  0  0  0  0  0  0
    5.3426    1.8923    0.0000 H   0  0  0  0  0  0  0  0  0  0  0  0
    4.9441    2.5826    0.0000 H   0  0  0  0  0  0  0  0  0  0  0  0
    1.8354    0.8321    0.0000 H   0  0  0  0  0  0  0  0  0  0  0  0
    1.7590   -0.0414    0.0000 H   0  0  0  0  0  0  0  0  0  0  0  0
    2.6325   -0.1177    0.0000 H   0  0  0  0  0  0  0  0  0  0  0  0
    2.0000    1.6200    0.0000 H   0  0  0  0  0  0  0  0  0  0  0  0
    1.3800    1.0000    0.0000 H   0  0  0  0  0  0  0  0  0  0  0  0
    2.0000    0.3800    0.0000 H   0  0  0  0  0  0  0  0  0  0  0  0
    4.9441   -1.5826    0.0000 H   0  0  0  0  0  0  0  0  0  0  0  0
    5.3426   -0.8923    0.0000 H   0  0  0  0  0  0  0  0  0  0  0  0
    2.4631   -1.3100    0.0000 H   0  0  0  0  0  0  0  0  0  0  0  0
    5.5981   -0.1200    0.0000 H   0  0  0  0  0  0  0  0  0  0  0  0
    6.1350    0.8100    0.0000 H   0  0  0  0  0  0  0  0  0  0  0  0
    3.2460   -2.5000    0.0000 H   0  0  0  0  0  0  0  0  0  0  0  0
    3.8660   -3.1200    0.0000 H   0  0  0  0  0  0  0  0  0  0  0  0
    4.4860   -2.5000    0.0000 H   0  0  0  0  0  0  0  0  0  0  0  0
  1  2  1  0  0  0  0
  1  4  1  1  0  0  0
  1  5  1  0  0  0  0
  1  6  1  0  0  0  0
  2  3  1  0  0  0  0
  2  9  1  0  0  0  0
  2 10  1  0  0  0  0
  3  7  1  0  0  0  0
  3 16  1  0  0  0  0
  3 17  1  0  0  0  0
  4 11  1  0  0  0  0
  4 18  1  0  0  0  0
  4 19  1  0  0  0  0
  5 12  1  0  0  0  0
  5 20  1  0  0  0  0
  5 21  1  0  0  0  0
  6  8  1  0  0  0  0
  6 14  2  0  0  0  0
  7  8  1  0  0  0  0
  7 22  1  0  0  0  0
  7 23  1  0  0  0  0
  8 24  1  0  0  0  0
  8 25  1  0  0  0  0
  9 29  1  0  0  0  0
  9 30  1  0  0  0  0
  9 31  1  0  0  0  0
 10 26  1  0  0  0  0
 10 27  1  0  0  0  0
 10 28  1  0  0  0  0
 11 13  1  0  0  0  0
 11 32  1  0  0  0  0
 11 33  1  0  0  0  0
 12 13  2  0  0  0  0
 12 34  1  0  0  0  0
 13 15  1  0  0  0  0
 14 35  1  0  0  0  0
 14 36  1  0  0  0  0
 15 37  1  0  0  0  0
 15 38  1  0  0  0  0
 15 39  1  0  0  0  0
M  END
> <PUBCHEM_COMPOUND_CID>
442353

> <PUBCHEM_COMPOUND_CANONICALIZED>
1

> <PUBCHEM_CACTVS_COMPLEXITY>
306

> <PUBCHEM_CACTVS_HBOND_ACCEPTOR>
0

> <PUBCHEM_CACTVS_HBOND_DONOR>
0

> <PUBCHEM_CACTVS_ROTATABLE_BOND>
0

> <PUBCHEM_CACTVS_SUBSKEYS>
AAADceBwAAAAAAAAAAAAAAAAAAAAAAAAAAAwQAAAAAAAAAAAAAAAGAAAAAAADgCAAAACAAAAAACAAiBCAAAAAAAgAAAACAAAAAgAAAIAAQAAAAAAgAAIAAMAgMAPgAAAAAAAAAAAAAAAACAAAAAAAAAAAA==

> <PUBCHEM_IUPAC_OPENEYE_NAME>
(6~{R})-5,5,9-trimethyl-1-methylene-spiro[5.5]undec-9-ene

> <PUBCHEM_IUPAC_CAS_NAME>
(6~{R})-5,5,9-trimethyl-1-methylenespiro[5.5]undec-9-ene

> <PUBCHEM_IUPAC_NAME>
(6~{R})-5,5,9-trimethyl-1-methylidenespiro[5.5]undec-9-ene

> <PUBCHEM_IUPAC_SYSTEMATIC_NAME>
(6~{R})-5,5,9-trimethyl-1-methylidene-spiro[5.5]undec-9-ene

> <PUBCHEM_IUPAC_TRADITIONAL_NAME>
(6~{R})-5,5,9-trimethyl-1-methylene-spiro[5.5]undec-9-ene

> <PUBCHEM_IUPAC_INCHI>
InChI=1S/C15H24/c1-12-7-10-15(11-8-12)13(2)6-5-9-14(15,3)4/h7H,2,5-6,8-11H2,1,3-4H3/t15-/m1/s1

> <PUBCHEM_IUPAC_INCHIKEY>
WLNGPDPILFYWKF-OAHLLOKOSA-N

> <PUBCHEM_XLOGP3_AA>
4.7

> <PUBCHEM_EXACT_MASS>
204.188

> <PUBCHEM_MOLECULAR_FORMULA>
C15H24

> <PUBCHEM_MOLECULAR_WEIGHT>
204.357

> <PUBCHEM_OPENEYE_CAN_SMILES>
CC1=CCC2(CC1)C(=C)CCCC2(C)C

> <PUBCHEM_OPENEYE_ISO_SMILES>
CC1=CC[C@@]2(CC1)C(=C)CCCC2(C)C

> <PUBCHEM_CACTVS_TPSA>
0

> <PUBCHEM_MONOISOTOPIC_WEIGHT>
204.188

> <PUBCHEM_TOTAL_CHARGE>
0

> <PUBCHEM_HEAVY_ATOM_COUNT>
15

> <PUBCHEM_ATOM_DEF_STEREO_COUNT>
1

> <PUBCHEM_ATOM_UDEF_STEREO_COUNT>
0

> <PUBCHEM_BOND_DEF_STEREO_COUNT>
0

> <PUBCHEM_BOND_UDEF_STEREO_COUNT>
0

> <PUBCHEM_ISOTOPIC_ATOM_COUNT>
0

> <PUBCHEM_COMPONENT_COUNT>
1

> <PUBCHEM_CACTVS_TAUTO_COUNT>
1

> <PUBCHEM_COORDINATE_TYPE>
1
5
255

> <PUBCHEM_BONDANNOTATIONS>
1  4  5

$$$$
87529
  -OEChem-02201912152D

 39 41  0     1  0  0  0  0  0999 V2000
    2.9986   -0.0572    0.0000 C   0  0  2  0  0  0  0  0  0  0  0  0
    5.8153    0.0280    0.0000 C   0  0  3  0  0  0  0  0  0  0  0  0
    4.6752    0.9851    0.0000 C   0  0  3  0  0  0  0  0  0  0  0  0
    4.4164    0.0192    0.0000 C   0  0  1  0  0  0  0  0  0  0  0  0
    5.3659   -0.8607    0.0000 C   0  0  1  0  0  0  0  0  0  0  0  0
    3.5009   -0.9171    0.0000 C   0  0  0  0  0  0  0  0  0  0  0  0
    4.5967    2.4459    0.0000 C   0  0  0  0  0  0  0  0  0  0  0  0
    4.4439   -1.2372    0.0000 C   0  0  0  0  0  0  0  0  0  0  0  0
    3.1954    1.6369    0.0000 C   0  0  0  0  0  0  0  0  0  0  0  0
    2.0000   -0.1109    0.0000 C   0  0  0  0  0  0  0  0  0  0  0  0
    3.6022    2.5504    0.0000 C   0  0  0  0  0  0  0  0  0  0  0  0
    6.0440   -1.5957    0.0000 C   0  0  0  0  0  0  0  0  0  0  0  0
    2.2173    1.4290    0.0000 C   0  0  0  0  0  0  0  0  0  0  0  0
    7.0195   -1.3760    0.0000 C   0  0  0  0  0  0  0  0  0  0  0  0
    5.7465   -2.5504    0.0000 C   0  0  0  0  0  0  0  0  0  0  0  0
    6.4227    0.1525    0.0000 H   0  0  0  0  0  0  0  0  0  0  0  0
    5.4357    1.3648    0.0000 H   0  0  0  0  0  0  0  0  0  0  0  0
    4.2559   -0.5797    0.0000 H   0  0  0  0  0  0  0  0  0  0  0  0
    5.9800   -0.7751    0.0000 H   0  0  0  0  0  0  0  0  0  0  0  0
    2.8991   -1.0665    0.0000 H   0  0  0  0  0  0  0  0  0  0  0  0
    3.4749   -1.5365    0.0000 H   0  0  0  0  0  0  0  0  0  0  0  0
    5.2167    2.4464    0.0000 H   0  0  0  0  0  0  0  0  0  0  0  0
    4.6289    3.0650    0.0000 H   0  0  0  0  0  0  0  0  0  0  0  0
    4.0874   -1.7445    0.0000 H   0  0  0  0  0  0  0  0  0  0  0  0
    4.8304   -1.7220    0.0000 H   0  0  0  0  0  0  0  0  0  0  0  0
    1.9667    0.5082    0.0000 H   0  0  0  0  0  0  0  0  0  0  0  0
    1.3809   -0.1443    0.0000 H   0  0  0  0  0  0  0  0  0  0  0  0
    2.0333   -0.7300    0.0000 H   0  0  0  0  0  0  0  0  0  0  0  0
    3.7311    3.1569    0.0000 H   0  0  0  0  0  0  0  0  0  0  0  0
    3.0125    2.7420    0.0000 H   0  0  0  0  0  0  0  0  0  0  0  0
    5.4391   -1.7319    0.0000 H   0  0  0  0  0  0  0  0  0  0  0  0
    1.8024    1.8897    0.0000 H   0  0  0  0  0  0  0  0  0  0  0  0
    2.0257    0.8393    0.0000 H   0  0  0  0  0  0  0  0  0  0  0  0
    7.1557   -1.9808    0.0000 H   0  0  0  0  0  0  0  0  0  0  0  0
    7.6244   -1.2397    0.0000 H   0  0  0  0  0  0  0  0  0  0  0  0
    6.8833   -0.7711    0.0000 H   0  0  0  0  0  0  0  0  0  0  0  0
    5.1545   -2.3660    0.0000 H   0  0  0  0  0  0  0  0  0  0  0  0
    5.5620   -3.1423    0.0000 H   0  0  0  0  0  0  0  0  0  0  0  0
    6.3384   -2.7349    0.0000 H   0  0  0  0  0  0  0  0  0  0  0  0
  1  3  1  0  0  0  0
  1  4  1  0  0  0  0
  1  6  1  0  0  0  0
  1 10  1  1  0  0  0
  2  3  1  0  0  0  0
  2  4  1  0  0  0  0
  2  5  1  0  0  0  0
  2 16  1  0  0  0  0
  3  7  1  0  0  0  0
  3 17  1  0  0  0  0
  4  9  1  0  0  0  0
  4 18  1  0  0  0  0
  5  8  1  0  0  0  0
  5 12  1  6  0  0  0
  5 19  1  0  0  0  0
  6  8  1  0  0  0  0
  6 20  1  0  0  0  0
  6 21  1  0  0  0  0
  7 11  1  0  0  0  0
  7 22  1  0  0  0  0
  7 23  1  0  0  0  0
  8 24  1  0  0  0  0
  8 25  1  0  0  0  0
  9 11  1  0  0  0  0
  9 13  2  0  0  0  0
 10 26  1  0  0  0  0
 10 27  1  0  0  0  0
 10 28  1  0  0  0  0
 11 29  1  0  0  0  0
 11 30  1  0  0  0  0
 12 14  1  0  0  0  0
 12 15  1  0  0  0  0
 12 31  1  0  0  0  0
 13 32  1  0  0  0  0
 13 33  1  0  0  0  0
 14 34  1  0  0  0  0
 14 35  1  0  0  0  0
 14 36  1  0  0  0  0
 15 37  1  0  0  0  0
 15 38  1  0  0  0  0
 15 39  1  0  0  0  0
M  END
> <PUBCHEM_COMPOUND_CID>
87529

> <PUBCHEM_COMPOUND_CANONICALIZED>
1

> <PUBCHEM_CACTVS_COMPLEXITY>
301

> <PUBCHEM_CACTVS_HBOND_ACCEPTOR>
0

> <PUBCHEM_CACTVS_HBOND_DONOR>
0

> <PUBCHEM_CACTVS_ROTATABLE_BOND>
1

> <PUBCHEM_CACTVS_SUBSKEYS>
AAADceBwAAAAAAAAAAAAAAAAAABgAAAAAAAwYMGAAAAAAAAAAAAAGAAAAAAADwCAAAACAAAAAACAAgBCAAAAAAAgAAAAAAAAAAgAAAIAAQAAAAAAgAAAAAEAgMAPgAAAAAAAAACAAAQAACAAAAAAAAAAAA==

> <PUBCHEM_IUPAC_OPENEYE_NAME>
(1~{R},2~{S},8~{S})-8-isopropyl-1-methyl-3-methylene-tricyclo[4.4.0.0^{2,7}]decane

> <PUBCHEM_IUPAC_CAS_NAME>
(1~{R},2~{S},8~{S})-1-methyl-3-methylene-8-propan-2-yltricyclo[4.4.0.0^{2,7}]decane

> <PUBCHEM_IUPAC_NAME>
(1~{R},2~{S},8~{S})-1-methyl-3-methylidene-8-propan-2-yltricyclo[4.4.0.0^{2,7}]decane

> <PUBCHEM_IUPAC_SYSTEMATIC_NAME>
(1~{R},2~{S},8~{S})-1-methyl-3-methylidene-8-propan-2-yl-tricyclo[4.4.0.0^{2,7}]decane

> <PUBCHEM_IUPAC_TRADITIONAL_NAME>
(1~{R},2~{S},8~{S})-8-isopropyl-1-methyl-3-methylene-tricyclo[4.4.0.0^{2,7}]decane

> <PUBCHEM_IUPAC_INCHI>
InChI=1S/C15H24/c1-9(2)11-7-8-15(4)12-6-5-10(3)14(15)13(11)12/h9,11-14H,3,5-8H2,1-2,4H3/t11-,12?,13?,14+,15+/m0/s1

> <PUBCHEM_IUPAC_INCHIKEY>
UPVZPMJSRSWJHQ-HTXSYXIBSA-N

> <PUBCHEM_XLOGP3_AA>
4.7

> <PUBCHEM_EXACT_MASS>
204.188

> <PUBCHEM_MOLECULAR_FORMULA>
C15H24

> <PUBCHEM_MOLECULAR_WEIGHT>
204.357

> <PUBCHEM_OPENEYE_CAN_SMILES>
CC(C)C1CCC2(C3C1C2C(=C)CC3)C

> <PUBCHEM_OPENEYE_ISO_SMILES>
CC(C)[C@@H]1CC[C@]2([C@H]3C1C2CCC3=C)C

> <PUBCHEM_CACTVS_TPSA>
0

> <PUBCHEM_MONOISOTOPIC_WEIGHT>
204.188

> <PUBCHEM_TOTAL_CHARGE>
0

> <PUBCHEM_HEAVY_ATOM_COUNT>
15

> <PUBCHEM_ATOM_DEF_STEREO_COUNT>
3

> <PUBCHEM_ATOM_UDEF_STEREO_COUNT>
2

> <PUBCHEM_BOND_DEF_STEREO_COUNT>
0

> <PUBCHEM_BOND_UDEF_STEREO_COUNT>
0

> <PUBCHEM_ISOTOPIC_ATOM_COUNT>
0

> <PUBCHEM_COMPONENT_COUNT>
1

> <PUBCHEM_CACTVS_TAUTO_COUNT>
-1

> <PUBCHEM_COORDINATE_TYPE>
1
5
255

> <PUBCHEM_BONDANNOTATIONS>
1  10  5
2  4  3
3  17  3
5  12  6

$$$$
6918391
  -OEChem-02201912152D

 39 39  0     1  0  0  0  0  0999 V2000
    4.5981    1.2500    0.0000 C   0  0  2  0  0  0  0  0  0  0  0  0
    3.7320    0.7500    0.0000 C   0  0  1  0  0  0  0  0  0  0  0  0
    4.5981   -0.7500    0.0000 C   0  0  1  0  0  0  0  0  0  0  0  0
    3.7320   -0.2500    0.0000 C   0  0  0  0  0  0  0  0  0  0  0  0
    5.4641    0.7500    0.0000 C   0  0  0  0  0  0  0  0  0  0  0  0
    5.4641   -0.2500    0.0000 C   0  0  0  0  0  0  0  0  0  0  0  0
    4.0981    2.1160    0.0000 C   0  0  0  0  0  0  0  0  0  0  0  0
    2.8660    1.2500    0.0000 C   0  0  0  0  0  0  0  0  0  0  0  0
    5.0981    2.1160    0.0000 C   0  0  0  0  0  0  0  0  0  0  0  0
    4.5981   -1.7500    0.0000 C   0  0  0  0  0  0  0  0  0  0  0  0
    2.0000    0.7500    0.0000 C   0  0  0  0  0  0  0  0  0  0  0  0
    5.4641   -2.2500    0.0000 C   0  0  0  0  0  0  0  0  0  0  0  0
    2.8660    2.2500    0.0000 C   0  0  0  0  0  0  0  0  0  0  0  0
    6.0981    2.1160    0.0000 C   0  0  0  0  0  0  0  0  0  0  0  0
    3.7320   -2.2500    0.0000 C   0  0  0  0  0  0  0  0  0  0  0  0
    3.7320    1.3700    0.0000 H   0  0  0  0  0  0  0  0  0  0  0  0
    5.1350   -1.0600    0.0000 H   0  0  0  0  0  0  0  0  0  0  0  0
    3.1215   -0.1423    0.0000 H   0  0  0  0  0  0  0  0  0  0  0  0
    3.5200   -0.8326    0.0000 H   0  0  0  0  0  0  0  0  0  0  0  0
    6.0747    0.6423    0.0000 H   0  0  0  0  0  0  0  0  0  0  0  0
    5.6762    1.3326    0.0000 H   0  0  0  0  0  0  0  0  0  0  0  0
    5.6762   -0.8326    0.0000 H   0  0  0  0  0  0  0  0  0  0  0  0
    6.0747   -0.1423    0.0000 H   0  0  0  0  0  0  0  0  0  0  0  0
    4.6350    2.4260    0.0000 H   0  0  0  0  0  0  0  0  0  0  0  0
    3.7881    2.6530    0.0000 H   0  0  0  0  0  0  0  0  0  0  0  0
    3.5611    1.8060    0.0000 H   0  0  0  0  0  0  0  0  0  0  0  0
    4.7881    2.6530    0.0000 H   0  0  0  0  0  0  0  0  0  0  0  0
    1.6900    1.2869    0.0000 H   0  0  0  0  0  0  0  0  0  0  0  0
    1.4631    0.4400    0.0000 H   0  0  0  0  0  0  0  0  0  0  0  0
    2.3100    0.2131    0.0000 H   0  0  0  0  0  0  0  0  0  0  0  0
    5.1541   -2.7869    0.0000 H   0  0  0  0  0  0  0  0  0  0  0  0
    6.0010   -2.5600    0.0000 H   0  0  0  0  0  0  0  0  0  0  0  0
    5.7741   -1.7131    0.0000 H   0  0  0  0  0  0  0  0  0  0  0  0
    3.4030    2.5600    0.0000 H   0  0  0  0  0  0  0  0  0  0  0  0
    2.3291    2.5600    0.0000 H   0  0  0  0  0  0  0  0  0  0  0  0
    6.4081    1.5791    0.0000 H   0  0  0  0  0  0  0  0  0  0  0  0
    6.4081    2.6530    0.0000 H   0  0  0  0  0  0  0  0  0  0  0  0
    3.1951   -1.9400    0.0000 H   0  0  0  0  0  0  0  0  0  0  0  0
    3.7320   -2.8700    0.0000 H   0  0  0  0  0  0  0  0  0  0  0  0
  1  2  1  0  0  0  0
  1  5  1  0  0  0  0
  1  7  1  1  0  0  0
  1  9  1  0  0  0  0
  2  4  1  0  0  0  0
  2  8  1  1  0  0  0
  2 16  1  0  0  0  0
  3  4  1  0  0  0  0
  3  6  1  0  0  0  0
  3 10  1  1  0  0  0
  3 17  1  0  0  0  0
  4 18  1  0  0  0  0
  4 19  1  0  0  0  0
  5  6  1  0  0  0  0
  5 20  1  0  0  0  0
  5 21  1  0  0  0  0
  6 22  1  0  0  0  0
  6 23  1  0  0  0  0
  7 24  1  0  0  0  0
  7 25  1  0  0  0  0
  7 26  1  0  0  0  0
  8 11  1  0  0  0  0
  8 13  2  0  0  0  0
  9 14  2  0  0  0  0
  9 27  1  0  0  0  0
 10 12  1  0  0  0  0
 10 15  2  0  0  0  0
 11 28  1  0  0  0  0
 11 29  1  0  0  0  0
 11 30  1  0  0  0  0
 12 31  1  0  0  0  0
 12 32  1  0  0  0  0
 12 33  1  0  0  0  0
 13 34  1  0  0  0  0
 13 35  1  0  0  0  0
 14 36  1  0  0  0  0
 14 37  1  0  0  0  0
 15 38  1  0  0  0  0
 15 39  1  0  0  0  0
M  END
> <PUBCHEM_COMPOUND_CID>
6918391

> <PUBCHEM_COMPOUND_CANONICALIZED>
1

> <PUBCHEM_CACTVS_COMPLEXITY>
284

> <PUBCHEM_CACTVS_HBOND_ACCEPTOR>
0

> <PUBCHEM_CACTVS_HBOND_DONOR>
0

> <PUBCHEM_CACTVS_ROTATABLE_BOND>
3

> <PUBCHEM_CACTVS_SUBSKEYS>
AAADceBwAAAAAAAAAAAAAAAAAAAAAAAAAAAwAAAAAAAAAAAAAAAAGAAAAAAADwCAAAACAAAAAACAAiBCAAAAAAAgAAAIAAAAAAgAAAIAAQAAAAAAgAAAAAEAgMAPgAAAAAAAAACAAAQAACAAAAAAAAAAAA==

> <PUBCHEM_IUPAC_OPENEYE_NAME>
(1~{S},2~{S},4~{R})-2,4-diisopropenyl-1-methyl-1-vinyl-cyclohexane

> <PUBCHEM_IUPAC_CAS_NAME>
(1~{S},2~{S},4~{R})-1-ethenyl-1-methyl-2,4-bis(1-methylethenyl)cyclohexane

> <PUBCHEM_IUPAC_NAME>
(1~{S},2~{S},4~{R})-1-ethenyl-1-methyl-2,4-bis(prop-1-en-2-yl)cyclohexane

> <PUBCHEM_IUPAC_SYSTEMATIC_NAME>
(1~{S},2~{S},4~{R})-1-ethenyl-1-methyl-2,4-bis(prop-1-en-2-yl)cyclohexane

> <PUBCHEM_IUPAC_TRADITIONAL_NAME>
(1~{S},2~{S},4~{R})-2,4-diisopropenyl-1-methyl-1-vinyl-cyclohexane

> <PUBCHEM_IUPAC_INCHI>
InChI=1S/C15H24/c1-7-15(6)9-8-13(11(2)3)10-14(15)12(4)5/h7,13-14H,1-2,4,8-10H2,3,5-6H3/t13-,14+,15-/m1/s1

> <PUBCHEM_IUPAC_INCHIKEY>
OPFTUNCRGUEPRZ-QLFBSQMISA-N

> <PUBCHEM_XLOGP3_AA>
6.1

> <PUBCHEM_EXACT_MASS>
204.188

> <PUBCHEM_MOLECULAR_FORMULA>
C15H24

> <PUBCHEM_MOLECULAR_WEIGHT>
204.357

> <PUBCHEM_OPENEYE_CAN_SMILES>
CC(=C)C1CCC(C(C1)C(=C)C)(C)C=C

> <PUBCHEM_OPENEYE_ISO_SMILES>
CC(=C)[C@@H]1CC[C@@]([C@@H](C1)C(=C)C)(C)C=C

> <PUBCHEM_CACTVS_TPSA>
0

> <PUBCHEM_MONOISOTOPIC_WEIGHT>
204.188

> <PUBCHEM_TOTAL_CHARGE>
0

> <PUBCHEM_HEAVY_ATOM_COUNT>
15

> <PUBCHEM_ATOM_DEF_STEREO_COUNT>
3

> <PUBCHEM_ATOM_UDEF_STEREO_COUNT>
0

> <PUBCHEM_BOND_DEF_STEREO_COUNT>
0

> <PUBCHEM_BOND_UDEF_STEREO_COUNT>
0

> <PUBCHEM_ISOTOPIC_ATOM_COUNT>
0

> <PUBCHEM_COMPONENT_COUNT>
1

> <PUBCHEM_CACTVS_TAUTO_COUNT>
1

> <PUBCHEM_COORDINATE_TYPE>
1
5
255

> <PUBCHEM_BONDANNOTATIONS>
1  7  5
2  8  5
3  10  5

$$$$
6429302
  -OEChem-02201912152D

 39 40  0     1  0  0  0  0  0999 V2000
    5.4490    0.3292    0.0000 C   0  0  2  0  0  0  0  0  0  0  0  0
    4.3089    1.2863    0.0000 C   0  0  2  0  0  0  0  0  0  0  0  0
    4.0501    0.3204    0.0000 C   0  0  1  0  0  0  0  0  0  0  0  0
    3.5723    2.2689    0.0000 C   0  0  0  0  0  0  0  0  0  0  0  0
    2.2756    0.9752    0.0000 C   0  0  0  0  0  0  0  0  0  0  0  0
    5.9490   -0.5368    0.0000 C   0  0  0  0  0  0  0  0  0  0  0  0
    2.8290   -0.5453    0.0000 C   0  0  0  0  0  0  0  0  0  0  0  0
    6.3150    0.8292    0.0000 C   0  0  0  0  0  0  0  0  0  0  0  0
    2.0000    0.0139    0.0000 C   0  0  0  0  0  0  0  0  0  0  0  0
    6.9490   -0.5368    0.0000 C   0  0  0  0  0  0  0  0  0  0  0  0
    2.8639   -1.5447    0.0000 C   0  0  0  0  0  0  0  0  0  0  0  0
    7.4490   -1.4029    0.0000 C   0  0  0  0  0  0  0  0  0  0  0  0
    8.4490   -1.4029    0.0000 C   0  0  0  0  0  0  0  0  0  0  0  0
    8.9490   -2.2689    0.0000 C   0  0  0  0  0  0  0  0  0  0  0  0
    8.9490   -0.5368    0.0000 C   0  0  0  0  0  0  0  0  0  0  0  0
    4.5289    2.1073    0.0000 H   0  0  0  0  0  0  0  0  0  0  0  0
    3.8301   -0.5007    0.0000 H   0  0  0  0  0  0  0  0  0  0  0  0
    3.8901    2.8012    0.0000 H   0  0  0  0  0  0  0  0  0  0  0  0
    2.9591    2.3608    0.0000 H   0  0  0  0  0  0  0  0  0  0  0  0
    2.2706    1.5951    0.0000 H   0  0  0  0  0  0  0  0  0  0  0  0
    1.6613    1.0589    0.0000 H   0  0  0  0  0  0  0  0  0  0  0  0
    5.3664   -0.7489    0.0000 H   0  0  0  0  0  0  0  0  0  0  0  0
    6.0567   -1.1474    0.0000 H   0  0  0  0  0  0  0  0  0  0  0  0
    6.6250    0.2922    0.0000 H   0  0  0  0  0  0  0  0  0  0  0  0
    6.8520    1.1392    0.0000 H   0  0  0  0  0  0  0  0  0  0  0  0
    6.0050    1.3661    0.0000 H   0  0  0  0  0  0  0  0  0  0  0  0
    1.4174   -0.1982    0.0000 H   0  0  0  0  0  0  0  0  0  0  0  0
    7.5316   -0.3248    0.0000 H   0  0  0  0  0  0  0  0  0  0  0  0
    6.8413    0.0737    0.0000 H   0  0  0  0  0  0  0  0  0  0  0  0
    2.2443   -1.5663    0.0000 H   0  0  0  0  0  0  0  0  0  0  0  0
    2.8856   -2.1643    0.0000 H   0  0  0  0  0  0  0  0  0  0  0  0
    3.4836   -1.5231    0.0000 H   0  0  0  0  0  0  0  0  0  0  0  0
    7.1390   -1.9398    0.0000 H   0  0  0  0  0  0  0  0  0  0  0  0
    9.4859   -0.8468    0.0000 H   0  0  0  0  0  0  0  0  0  0  0  0
    9.2590    0.0001    0.0000 H   0  0  0  0  0  0  0  0  0  0  0  0
    8.4121   -0.2268    0.0000 H   0  0  0  0  0  0  0  0  0  0  0  0
    8.4121   -2.5789    0.0000 H   0  0  0  0  0  0  0  0  0  0  0  0
    9.2590   -2.8058    0.0000 H   0  0  0  0  0  0  0  0  0  0  0  0
    9.4859   -1.9589    0.0000 H   0  0  0  0  0  0  0  0  0  0  0  0
  1  2  1  0  0  0  0
  1  3  1  0  0  0  0
  1  6  1  0  0  0  0
  1  8  1  6  0  0  0
  2  4  1  0  0  0  0
  2  5  1  0  0  0  0
  2 16  1  6  0  0  0
  3  4  1  0  0  0  0
  3  7  1  0  0  0  0
  3 17  1  1  0  0  0
  4 18  1  0  0  0  0
  4 19  1  0  0  0  0
  5  9  1  0  0  0  0
  5 20  1  0  0  0  0
  5 21  1  0  0  0  0
  6 10  1  0  0  0  0
  6 22  1  0  0  0  0
  6 23  1  0  0  0  0
  7  9  2  0  0  0  0
  7 11  1  0  0  0  0
  8 24  1  0  0  0  0
  8 25  1  0  0  0  0
  8 26  1  0  0  0  0
  9 27  1  0  0  0  0
 10 12  1  0  0  0  0
 10 28  1  0  0  0  0
 10 29  1  0  0  0  0
 11 30  1  0  0  0  0
 11 31  1  0  0  0  0
 11 32  1  0  0  0  0
 12 13  2  0  0  0  0
 12 33  1  0  0  0  0
 13 14  1  0  0  0  0
 13 15  1  0  0  0  0
 14 37  1  0  0  0  0
 14 38  1  0  0  0  0
 14 39  1  0  0  0  0
 15 34  1  0  0  0  0
 15 35  1  0  0  0  0
 15 36  1  0  0  0  0
M  END
> <PUBCHEM_COMPOUND_CID>
6429302

> <PUBCHEM_COMPOUND_CANONICALIZED>
1

> <PUBCHEM_CACTVS_COMPLEXITY>
304

> <PUBCHEM_CACTVS_HBOND_ACCEPTOR>
0

> <PUBCHEM_CACTVS_HBOND_DONOR>
0

> <PUBCHEM_CACTVS_ROTATABLE_BOND>
3

> <PUBCHEM_CACTVS_SUBSKEYS>
AAADceBwAAAAAAAAAAAAAAAAAABgAAAAAAAgQAAAAAAAAAAAAAAAGAAAAAAADwCAAAACAAAAAACAAiBCAAAAAAAgAAAACAAAAAgAAAIAAQAAAAAAgAAIAAMAgMAPgAAAAAAAAAAAAAAAAAAAAAAAAAAAAA==

> <PUBCHEM_IUPAC_OPENEYE_NAME>
(1~{S},5~{S},6~{R})-2,6-dimethyl-6-(4-methylpent-3-enyl)bicyclo[3.1.1]hept-2-ene

> <PUBCHEM_IUPAC_CAS_NAME>
(1~{S},5~{S},6~{R})-2,6-dimethyl-6-(4-methylpent-3-enyl)bicyclo[3.1.1]hept-2-ene

> <PUBCHEM_IUPAC_NAME>
(1~{S},5~{S},6~{R})-2,6-dimethyl-6-(4-methylpent-3-enyl)bicyclo[3.1.1]hept-2-ene

> <PUBCHEM_IUPAC_SYSTEMATIC_NAME>
(1~{S},5~{S},6~{R})-2,6-dimethyl-6-(4-methylpent-3-enyl)bicyclo[3.1.1]hept-2-ene

> <PUBCHEM_IUPAC_TRADITIONAL_NAME>
(1~{S},5~{S},6~{R})-2,6-dimethyl-6-(4-methylpent-3-enyl)bicyclo[3.1.1]hept-2-ene

> <PUBCHEM_IUPAC_INCHI>
InChI=1S/C15H24/c1-11(2)6-5-9-15(4)13-8-7-12(3)14(15)10-13/h6-7,13-14H,5,8-10H2,1-4H3/t13-,14-,15+/m0/s1

> <PUBCHEM_IUPAC_INCHIKEY>
YMBFCQPIMVLNIU-SOUVJXGZSA-N

> <PUBCHEM_XLOGP3_AA>
4.8

> <PUBCHEM_EXACT_MASS>
204.188

> <PUBCHEM_MOLECULAR_FORMULA>
C15H24

> <PUBCHEM_MOLECULAR_WEIGHT>
204.357

> <PUBCHEM_OPENEYE_CAN_SMILES>
CC1=CCC2CC1C2(C)CCC=C(C)C

> <PUBCHEM_OPENEYE_ISO_SMILES>
CC1=CC[C@H]2C[C@@H]1[C@]2(C)CCC=C(C)C

> <PUBCHEM_CACTVS_TPSA>
0

> <PUBCHEM_MONOISOTOPIC_WEIGHT>
204.188

> <PUBCHEM_TOTAL_CHARGE>
0

> <PUBCHEM_HEAVY_ATOM_COUNT>
15

> <PUBCHEM_ATOM_DEF_STEREO_COUNT>
3

> <PUBCHEM_ATOM_UDEF_STEREO_COUNT>
0

> <PUBCHEM_BOND_DEF_STEREO_COUNT>
0

> <PUBCHEM_BOND_UDEF_STEREO_COUNT>
0

> <PUBCHEM_ISOTOPIC_ATOM_COUNT>
0

> <PUBCHEM_COMPONENT_COUNT>
1

> <PUBCHEM_CACTVS_TAUTO_COUNT>
-1

> <PUBCHEM_COORDINATE_TYPE>
1
5
255

> <PUBCHEM_BONDANNOTATIONS>
1  8  6
2  16  6
3  17  5

$$$$
5315347
  -OEChem-02201912152D

 39 40  0     1  0  0  0  0  0999 V2000
    5.4644    1.1272    0.0000 C   0  0  0  0  0  0  0  0  0  0  0  0
    5.4641    0.1268    0.0000 C   0  0  3  0  0  0  0  0  0  0  0  0
    4.5981    0.6268    0.0000 C   0  0  3  0  0  0  0  0  0  0  0  0
    5.4641   -0.8732    0.0000 C   0  0  0  0  0  0  0  0  0  0  0  0
    6.4644    1.1272    0.0000 C   0  0  0  0  0  0  0  0  0  0  0  0
    4.9644    1.9932    0.0000 C   0  0  0  0  0  0  0  0  0  0  0  0
    3.7320    0.1268    0.0000 C   0  0  0  0  0  0  0  0  0  0  0  0
    4.5981   -1.3732    0.0000 C   0  0  0  0  0  0  0  0  0  0  0  0
    2.8660    0.6268    0.0000 C   0  0  0  0  0  0  0  0  0  0  0  0
    3.7320   -0.8732    0.0000 C   0  0  0  0  0  0  0  0  0  0  0  0
    2.0000    0.1268    0.0000 C   0  0  0  0  0  0  0  0  0  0  0  0
    2.0000   -0.8732    0.0000 C   0  0  0  0  0  0  0  0  0  0  0  0
    2.8660    1.6268    0.0000 C   0  0  0  0  0  0  0  0  0  0  0  0
    2.8660   -1.3732    0.0000 C   0  0  0  0  0  0  0  0  0  0  0  0
    3.4629    0.6532    0.0000 C   0  0  0  0  0  0  0  0  0  0  0  0
    6.0841    0.1267    0.0000 H   0  0  0  0  0  0  0  0  0  0  0  0
    4.2880    1.1637    0.0000 H   0  0  0  0  0  0  0  0  0  0  0  0
    5.6762   -1.4558    0.0000 H   0  0  0  0  0  0  0  0  0  0  0  0
    6.0747   -0.7656    0.0000 H   0  0  0  0  0  0  0  0  0  0  0  0
    5.5013    2.3032    0.0000 H   0  0  0  0  0  0  0  0  0  0  0  0
    4.6544    2.5302    0.0000 H   0  0  0  0  0  0  0  0  0  0  0  0
    4.4274    1.6832    0.0000 H   0  0  0  0  0  0  0  0  0  0  0  0
    6.4644    0.5072    0.0000 H   0  0  0  0  0  0  0  0  0  0  0  0
    7.0844    1.1272    0.0000 H   0  0  0  0  0  0  0  0  0  0  0  0
    6.4644    1.7472    0.0000 H   0  0  0  0  0  0  0  0  0  0  0  0
    4.1307   -0.3481    0.0000 H   0  0  0  0  0  0  0  0  0  0  0  0
    4.1996   -1.8482    0.0000 H   0  0  0  0  0  0  0  0  0  0  0  0
    4.9966   -1.8482    0.0000 H   0  0  0  0  0  0  0  0  0  0  0  0
    1.7880    0.7094    0.0000 H   0  0  0  0  0  0  0  0  0  0  0  0
    1.3894    0.0191    0.0000 H   0  0  0  0  0  0  0  0  0  0  0  0
    1.3894   -0.7656    0.0000 H   0  0  0  0  0  0  0  0  0  0  0  0
    1.7880   -1.4558    0.0000 H   0  0  0  0  0  0  0  0  0  0  0  0
    3.4860    1.6268    0.0000 H   0  0  0  0  0  0  0  0  0  0  0  0
    2.8660    2.2468    0.0000 H   0  0  0  0  0  0  0  0  0  0  0  0
    2.2460    1.6268    0.0000 H   0  0  0  0  0  0  0  0  0  0  0  0
    2.8660   -1.9932    0.0000 H   0  0  0  0  0  0  0  0  0  0  0  0
    4.0735    0.7609    0.0000 H   0  0  0  0  0  0  0  0  0  0  0  0
    3.3552    1.2638    0.0000 H   0  0  0  0  0  0  0  0  0  0  0  0
    2.8523    0.5456    0.0000 H   0  0  0  0  0  0  0  0  0  0  0  0
  1  2  1  0  0  0  0
  1  3  1  0  0  0  0
  1  5  1  0  0  0  0
  1  6  1  0  0  0  0
  2  3  1  0  0  0  0
  2  4  1  0  0  0  0
  2 16  1  0  0  0  0
  3  7  1  0  0  0  0
  3 17  1  0  0  0  0
  4  8  1  0  0  0  0
  4 18  1  0  0  0  0
  4 19  1  0  0  0  0
  5 23  1  0  0  0  0
  5 24  1  0  0  0  0
  5 25  1  0  0  0  0
  6 20  1  0  0  0  0
  6 21  1  0  0  0  0
  6 22  1  0  0  0  0
  7  9  2  0  0  0  0
  7 26  1  0  0  0  0
  8 10  1  0  0  0  0
  8 27  1  0  0  0  0
  8 28  1  0  0  0  0
  9 11  1  0  0  0  0
  9 13  1  0  0  0  0
 10 14  2  0  0  0  0
 10 15  1  0  0  0  0
 11 12  1  0  0  0  0
 11 29  1  0  0  0  0
 11 30  1  0  0  0  0
 12 14  1  0  0  0  0
 12 31  1  0  0  0  0
 12 32  1  0  0  0  0
 13 33  1  0  0  0  0
 13 34  1  0  0  0  0
 13 35  1  0  0  0  0
 14 36  1  0  0  0  0
 15 37  1  0  0  0  0
 15 38  1  0  0  0  0
 15 39  1  0  0  0  0
M  END
> <PUBCHEM_COMPOUND_CID>
5315347

> <PUBCHEM_COMPOUND_CANONICALIZED>
1

> <PUBCHEM_CACTVS_COMPLEXITY>
304

> <PUBCHEM_CACTVS_HBOND_ACCEPTOR>
0

> <PUBCHEM_CACTVS_HBOND_DONOR>
0

> <PUBCHEM_CACTVS_ROTATABLE_BOND>
0

> <PUBCHEM_CACTVS_SUBSKEYS>
AAADceBwAAAAAAAAAAAAAAAAGAAAAAAAAAAAAAAAAAAAAACAAAAAGAAAAAAADwCAAAACAAAAAACAAiBCAAAAAAAgAAAACAAAAAgAAAIAAQAAAAAAgAAIAAMAgMAPgAAAAAAAAAAAAAAAAAAAAAAAAAAAAA==

> <PUBCHEM_IUPAC_OPENEYE_NAME>
(2~{E},6~{E})-3,7,11,11-tetramethylbicyclo[8.1.0]undeca-2,6-diene

> <PUBCHEM_IUPAC_CAS_NAME>
(2~{E},6~{E})-3,7,11,11-tetramethylbicyclo[8.1.0]undeca-2,6-diene

> <PUBCHEM_IUPAC_NAME>
(2~{E},6~{E})-3,7,11,11-tetramethylbicyclo[8.1.0]undeca-2,6-diene

> <PUBCHEM_IUPAC_SYSTEMATIC_NAME>
(2~{E},6~{E})-3,7,11,11-tetramethylbicyclo[8.1.0]undeca-2,6-diene

> <PUBCHEM_IUPAC_TRADITIONAL_NAME>
(2~{E},6~{E})-3,7,11,11-tetramethylbicyclo[8.1.0]undeca-2,6-diene

> <PUBCHEM_IUPAC_INCHI>
InChI=1S/C15H24/c1-11-6-5-7-12(2)10-14-13(9-8-11)15(14,3)4/h6,10,13-14H,5,7-9H2,1-4H3/b11-6+,12-10+

> <PUBCHEM_IUPAC_INCHIKEY>
VPDZRSSKICPUEY-BFPRWLMKSA-N

> <PUBCHEM_XLOGP3_AA>
4.1

> <PUBCHEM_EXACT_MASS>
204.188

> <PUBCHEM_MOLECULAR_FORMULA>
C15H24

> <PUBCHEM_MOLECULAR_WEIGHT>
204.357

> <PUBCHEM_OPENEYE_CAN_SMILES>
CC1=CCCC(=CC2C(C2(C)C)CC1)C

> <PUBCHEM_OPENEYE_ISO_SMILES>
C/C/1=C\CC/C(=C/C2C(C2(C)C)CC1)/C

> <PUBCHEM_CACTVS_TPSA>
0

> <PUBCHEM_MONOISOTOPIC_WEIGHT>
204.188

> <PUBCHEM_TOTAL_CHARGE>
0

> <PUBCHEM_HEAVY_ATOM_COUNT>
15

> <PUBCHEM_ATOM_DEF_STEREO_COUNT>
0

> <PUBCHEM_ATOM_UDEF_STEREO_COUNT>
2

> <PUBCHEM_BOND_DEF_STEREO_COUNT>
2

> <PUBCHEM_BOND_UDEF_STEREO_COUNT>
0

> <PUBCHEM_ISOTOPIC_ATOM_COUNT>
0

> <PUBCHEM_COMPONENT_COUNT>
1

> <PUBCHEM_CACTVS_TAUTO_COUNT>
-1

> <PUBCHEM_COORDINATE_TYPE>
1
5
255

> <PUBCHEM_BONDANNOTATIONS>
2  1  3
3  1  3

$$$$
530816
  -OEChem-02201912152D

 39 41  0     1  0  0  0  0  0999 V2000
    5.3212   -1.1530    0.0000 C   0  0  3  0  0  0  0  0  0  0  0  0
    4.6141   -0.4459    0.0000 C   0  0  3  0  0  0  0  0  0  0  0  0
    6.0283   -0.4459    0.0000 C   0  0  3  0  0  0  0  0  0  0  0  0
    5.3212    0.2612    0.0000 C   0  0  3  0  0  0  0  0  0  0  0  0
    3.7295   -0.8995    0.0000 C   0  0  3  0  0  0  0  0  0  0  0  0
    4.8676   -2.0376    0.0000 C   0  0  0  0  0  0  0  0  0  0  0  0
    3.8859   -1.8812    0.0000 C   0  0  0  0  0  0  0  0  0  0  0  0
    6.9128    0.0077    0.0000 C   0  0  0  0  0  0  0  0  0  0  0  0
    5.7748    1.1458    0.0000 C   0  0  0  0  0  0  0  0  0  0  0  0
    6.0283   -1.8601    0.0000 C   0  0  0  0  0  0  0  0  0  0  0  0
    2.8377   -0.4470    0.0000 C   0  0  0  0  0  0  0  0  0  0  0  0
    6.7565    0.9894    0.0000 C   0  0  0  0  0  0  0  0  0  0  0  0
    5.3223    2.0376    0.0000 C   0  0  0  0  0  0  0  0  0  0  0  0
    2.0000   -0.9931    0.0000 C   0  0  0  0  0  0  0  0  0  0  0  0
    2.7837    0.5515    0.0000 C   0  0  0  0  0  0  0  0  0  0  0  0
    4.2490    0.0552    0.0000 H   0  0  0  0  0  0  0  0  0  0  0  0
    6.3934   -0.9470    0.0000 H   0  0  0  0  0  0  0  0  0  0  0  0
    4.8201    0.6263    0.0000 H   0  0  0  0  0  0  0  0  0  0  0  0
    3.2284   -1.2646    0.0000 H   0  0  0  0  0  0  0  0  0  0  0  0
    4.7062   -2.6362    0.0000 H   0  0  0  0  0  0  0  0  0  0  0  0
    5.4460   -2.2609    0.0000 H   0  0  0  0  0  0  0  0  0  0  0  0
    3.2667   -1.9138    0.0000 H   0  0  0  0  0  0  0  0  0  0  0  0
    3.8532   -2.5003    0.0000 H   0  0  0  0  0  0  0  0  0  0  0  0
    7.1362   -0.5707    0.0000 H   0  0  0  0  0  0  0  0  0  0  0  0
    7.5115    0.1690    0.0000 H   0  0  0  0  0  0  0  0  0  0  0  0
    5.5899   -2.2985    0.0000 H   0  0  0  0  0  0  0  0  0  0  0  0
    6.4667   -2.2985    0.0000 H   0  0  0  0  0  0  0  0  0  0  0  0
    6.4667   -1.4217    0.0000 H   0  0  0  0  0  0  0  0  0  0  0  0
    3.3571   -0.1085    0.0000 H   0  0  0  0  0  0  0  0  0  0  0  0
    7.1949    1.4278    0.0000 H   0  0  0  0  0  0  0  0  0  0  0  0
    5.8752    2.3181    0.0000 H   0  0  0  0  0  0  0  0  0  0  0  0
    5.0418    2.5905    0.0000 H   0  0  0  0  0  0  0  0  0  0  0  0
    4.7694    1.7570    0.0000 H   0  0  0  0  0  0  0  0  0  0  0  0
    1.6614   -0.4737    0.0000 H   0  0  0  0  0  0  0  0  0  0  0  0
    1.4806   -1.3317    0.0000 H   0  0  0  0  0  0  0  0  0  0  0  0
    2.3386   -1.5125    0.0000 H   0  0  0  0  0  0  0  0  0  0  0  0
    3.4028    0.5850    0.0000 H   0  0  0  0  0  0  0  0  0  0  0  0
    2.7501    1.1706    0.0000 H   0  0  0  0  0  0  0  0  0  0  0  0
    2.1646    0.5180    0.0000 H   0  0  0  0  0  0  0  0  0  0  0  0
  1  2  1  0  0  0  0
  1  3  1  0  0  0  0
  1  6  1  0  0  0  0
  1 10  1  0  0  0  0
  2  4  1  0  0  0  0
  2  5  1  0  0  0  0
  2 16  1  0  0  0  0
  3  4  1  0  0  0  0
  3  8  1  0  0  0  0
  3 17  1  0  0  0  0
  4  9  1  0  0  0  0
  4 18  1  0  0  0  0
  5  7  1  0  0  0  0
  5 11  1  0  0  0  0
  5 19  1  0  0  0  0
  6  7  1  0  0  0  0
  6 20  1  0  0  0  0
  6 21  1  0  0  0  0
  7 22  1  0  0  0  0
  7 23  1  0  0  0  0
  8 12  1  0  0  0  0
  8 24  1  0  0  0  0
  8 25  1  0  0  0  0
  9 12  2  0  0  0  0
  9 13  1  0  0  0  0
 10 26  1  0  0  0  0
 10 27  1  0  0  0  0
 10 28  1  0  0  0  0
 11 14  1  0  0  0  0
 11 15  1  0  0  0  0
 11 29  1  0  0  0  0
 12 30  1  0  0  0  0
 13 31  1  0  0  0  0
 13 32  1  0  0  0  0
 13 33  1  0  0  0  0
 14 34  1  0  0  0  0
 14 35  1  0  0  0  0
 14 36  1  0  0  0  0
 15 37  1  0  0  0  0
 15 38  1  0  0  0  0
 15 39  1  0  0  0  0
M  END
> <PUBCHEM_COMPOUND_CID>
530816

> <PUBCHEM_COMPOUND_CANONICALIZED>
1

> <PUBCHEM_CACTVS_COMPLEXITY>
312

> <PUBCHEM_CACTVS_HBOND_ACCEPTOR>
0

> <PUBCHEM_CACTVS_HBOND_DONOR>
0

> <PUBCHEM_CACTVS_ROTATABLE_BOND>
1

> <PUBCHEM_CACTVS_SUBSKEYS>
AAADceBwAAAAAAAAAAAAAAAAAABgAYIAAAAAAAAABggAAAAAAAAAGAAAAAAADwCAAAACAAAAAACAAiBCAAAAAAAgAAAACAAAAAgAAAIAAQAAAAAAgAAIAAMAgMAPgAAAAAAAAAAAAAAAAAAAAQAACAAAAA==

> <PUBCHEM_IUPAC_OPENEYE_NAME>
10-isopropyl-3,7-dimethyl-tricyclo[5.3.0.0^{2,6}]dec-3-ene

> <PUBCHEM_IUPAC_CAS_NAME>
3,7-dimethyl-10-propan-2-yltricyclo[5.3.0.0^{2,6}]dec-3-ene

> <PUBCHEM_IUPAC_NAME>
3,7-dimethyl-10-propan-2-yltricyclo[5.3.0.0^{2,6}]dec-3-ene

> <PUBCHEM_IUPAC_SYSTEMATIC_NAME>
3,7-dimethyl-10-propan-2-yl-tricyclo[5.3.0.0^{2,6}]dec-3-ene

> <PUBCHEM_IUPAC_TRADITIONAL_NAME>
10-isopropyl-3,7-dimethyl-tricyclo[5.3.0.0^{2,6}]dec-3-ene

> <PUBCHEM_IUPAC_INCHI>
InChI=1S/C15H24/c1-9(2)11-7-8-15(4)12-6-5-10(3)13(12)14(11)15/h5,9,11-14H,6-8H2,1-4H3

> <PUBCHEM_IUPAC_INCHIKEY>
FAIMMSRDTUMTQR-UHFFFAOYSA-N

> <PUBCHEM_XLOGP3_AA>
4.5

> <PUBCHEM_EXACT_MASS>
204.188

> <PUBCHEM_MOLECULAR_FORMULA>
C15H24

> <PUBCHEM_MOLECULAR_WEIGHT>
204.357

> <PUBCHEM_OPENEYE_CAN_SMILES>
CC1=CCC2C1C3C2(CCC3C(C)C)C

> <PUBCHEM_OPENEYE_ISO_SMILES>
CC1=CCC2C1C3C2(CCC3C(C)C)C

> <PUBCHEM_CACTVS_TPSA>
0

> <PUBCHEM_MONOISOTOPIC_WEIGHT>
204.188

> <PUBCHEM_TOTAL_CHARGE>
0

> <PUBCHEM_HEAVY_ATOM_COUNT>
15

> <PUBCHEM_ATOM_DEF_STEREO_COUNT>
0

> <PUBCHEM_ATOM_UDEF_STEREO_COUNT>
5

> <PUBCHEM_BOND_DEF_STEREO_COUNT>
0

> <PUBCHEM_BOND_UDEF_STEREO_COUNT>
0

> <PUBCHEM_ISOTOPIC_ATOM_COUNT>
0

> <PUBCHEM_COMPONENT_COUNT>
1

> <PUBCHEM_CACTVS_TAUTO_COUNT>
-1

> <PUBCHEM_COORDINATE_TYPE>
1
5
255

> <PUBCHEM_BONDANNOTATIONS>
1  10  3
2  5  3
3  8  3
4  9  3
5  11  3

$$$$
442393
  -OEChem-02201912152D

 39 40  0     1  0  0  0  0  0999 V2000
    5.4641   -0.7673    0.0000 C   0  0  1  0  0  0  0  0  0  0  0  0
    5.4641    0.2327    0.0000 C   0  0  1  0  0  0  0  0  0  0  0  0
    4.5981   -1.2673    0.0000 C   0  0  0  0  0  0  0  0  0  0  0  0
    4.5981    0.7327    0.0000 C   0  0  0  0  0  0  0  0  0  0  0  0
    6.3580   -1.3020    0.0000 C   0  0  0  0  0  0  0  0  0  0  0  0
    3.7320    0.2327    0.0000 C   0  0  1  0  0  0  0  0  0  0  0  0
    3.7320   -0.7673    0.0000 C   0  0  0  0  0  0  0  0  0  0  0  0
    6.3580    0.7674    0.0000 C   0  0  0  0  0  0  0  0  0  0  0  0
    7.2641   -0.7881    0.0000 C   0  0  0  0  0  0  0  0  0  0  0  0
    5.4641   -1.7673    0.0000 C   0  0  0  0  0  0  0  0  0  0  0  0
    7.2641    0.2535    0.0000 C   0  0  0  0  0  0  0  0  0  0  0  0
    2.8660    0.7327    0.0000 C   0  0  0  0  0  0  0  0  0  0  0  0
    6.3465    1.7673    0.0000 C   0  0  0  0  0  0  0  0  0  0  0  0
    2.0000    0.2327    0.0000 C   0  0  0  0  0  0  0  0  0  0  0  0
    2.8660    1.7327    0.0000 C   0  0  0  0  0  0  0  0  0  0  0  0
    5.4576    1.0827    0.0000 H   0  0  0  0  0  0  0  0  0  0  0  0
    4.1996   -1.7422    0.0000 H   0  0  0  0  0  0  0  0  0  0  0  0
    4.9966   -1.7422    0.0000 H   0  0  0  0  0  0  0  0  0  0  0  0
    4.9966    1.2076    0.0000 H   0  0  0  0  0  0  0  0  0  0  0  0
    4.1996    1.2076    0.0000 H   0  0  0  0  0  0  0  0  0  0  0  0
    5.9534   -1.7718    0.0000 H   0  0  0  0  0  0  0  0  0  0  0  0
    6.7517   -1.7810    0.0000 H   0  0  0  0  0  0  0  0  0  0  0  0
    3.7320    0.8527    0.0000 H   0  0  0  0  0  0  0  0  0  0  0  0
    3.1215   -0.6596    0.0000 H   0  0  0  0  0  0  0  0  0  0  0  0
    3.5200   -1.3499    0.0000 H   0  0  0  0  0  0  0  0  0  0  0  0
    7.4732   -1.3718    0.0000 H   0  0  0  0  0  0  0  0  0  0  0  0
    7.8750   -0.6820    0.0000 H   0  0  0  0  0  0  0  0  0  0  0  0
    4.8441   -1.7673    0.0000 H   0  0  0  0  0  0  0  0  0  0  0  0
    5.4641   -2.3873    0.0000 H   0  0  0  0  0  0  0  0  0  0  0  0
    6.0841   -1.7673    0.0000 H   0  0  0  0  0  0  0  0  0  0  0  0
    7.8750    0.1474    0.0000 H   0  0  0  0  0  0  0  0  0  0  0  0
    7.4732    0.8372    0.0000 H   0  0  0  0  0  0  0  0  0  0  0  0
    6.8798    2.0835    0.0000 H   0  0  0  0  0  0  0  0  0  0  0  0
    5.8060    2.0711    0.0000 H   0  0  0  0  0  0  0  0  0  0  0  0
    1.6900    0.7696    0.0000 H   0  0  0  0  0  0  0  0  0  0  0  0
    1.4631   -0.0773    0.0000 H   0  0  0  0  0  0  0  0  0  0  0  0
    2.3100   -0.3042    0.0000 H   0  0  0  0  0  0  0  0  0  0  0  0
    3.4030    2.0427    0.0000 H   0  0  0  0  0  0  0  0  0  0  0  0
    2.3291    2.0427    0.0000 H   0  0  0  0  0  0  0  0  0  0  0  0
  1  2  1  0  0  0  0
  1  3  1  0  0  0  0
  1  5  1  0  0  0  0
  1 10  1  1  0  0  0
  2  4  1  0  0  0  0
  2  8  1  0  0  0  0
  2 16  1  6  0  0  0
  3  7  1  0  0  0  0
  3 17  1  0  0  0  0
  3 18  1  0  0  0  0
  4  6  1  0  0  0  0
  4 19  1  0  0  0  0
  4 20  1  0  0  0  0
  5  9  1  0  0  0  0
  5 21  1  0  0  0  0
  5 22  1  0  0  0  0
  6  7  1  0  0  0  0
  6 12  1  1  0  0  0
  6 23  1  0  0  0  0
  7 24  1  0  0  0  0
  7 25  1  0  0  0  0
  8 11  1  0  0  0  0
  8 13  2  0  0  0  0
  9 11  1  0  0  0  0
  9 26  1  0  0  0  0
  9 27  1  0  0  0  0
 10 28  1  0  0  0  0
 10 29  1  0  0  0  0
 10 30  1  0  0  0  0
 11 31  1  0  0  0  0
 11 32  1  0  0  0  0
 12 14  1  0  0  0  0
 12 15  2  0  0  0  0
 13 33  1  0  0  0  0
 13 34  1  0  0  0  0
 14 35  1  0  0  0  0
 14 36  1  0  0  0  0
 14 37  1  0  0  0  0
 15 38  1  0  0  0  0
 15 39  1  0  0  0  0
M  END
> <PUBCHEM_COMPOUND_CID>
442393

> <PUBCHEM_COMPOUND_CANONICALIZED>
1

> <PUBCHEM_CACTVS_COMPLEXITY>
286

> <PUBCHEM_CACTVS_HBOND_ACCEPTOR>
0

> <PUBCHEM_CACTVS_HBOND_DONOR>
0

> <PUBCHEM_CACTVS_ROTATABLE_BOND>
1

> <PUBCHEM_CACTVS_SUBSKEYS>
AAADceBwAAAAAAAAAAAAAAAAAAAAAAAAAAAwYAAAAAAAAADAAAAAGAAAAAAADwCAAAACAAAAAACAAgBCAAAAAAAgAAAAAAAAAAgAAAIAAQAAAAAAgAAAAAEAgMAPgAAAAAAAAACAAAQAACAAAAAAAAAAAA==

> <PUBCHEM_IUPAC_OPENEYE_NAME>
(4~{a}~{R},7~{R},8~{a}~{S})-7-isopropenyl-4~{a}-methyl-1-methylene-decalin

> <PUBCHEM_IUPAC_CAS_NAME>
(3~{R},4~{a}~{S},8~{a}~{R})-8~{a}-methyl-5-methylene-3-(1-methylethenyl)-1,2,3,4,4~{a},6,7,8-octahydronaphthalene

> <PUBCHEM_IUPAC_NAME>
(3~{R},4~{a}~{S},8~{a}~{R})-8~{a}-methyl-5-methylidene-3-prop-1-en-2-yl-1,2,3,4,4~{a},6,7,8-octahydronaphthalene

> <PUBCHEM_IUPAC_SYSTEMATIC_NAME>
(3~{R},4~{a}~{S},8~{a}~{R})-8~{a}-methyl-5-methylidene-3-prop-1-en-2-yl-1,2,3,4,4~{a},6,7,8-octahydronaphthalene

> <PUBCHEM_IUPAC_TRADITIONAL_NAME>
(4~{a}~{R},7~{R},8~{a}~{S})-7-isopropenyl-4~{a}-methyl-1-methylene-decalin

> <PUBCHEM_IUPAC_INCHI>
InChI=1S/C15H24/c1-11(2)13-7-9-15(4)8-5-6-12(3)14(15)10-13/h13-14H,1,3,5-10H2,2,4H3/t13-,14+,15-/m1/s1

> <PUBCHEM_IUPAC_INCHIKEY>
YOVSPTNQHMDJAG-QLFBSQMISA-N

> <PUBCHEM_XLOGP3_AA>
5.4

> <PUBCHEM_EXACT_MASS>
204.188

> <PUBCHEM_MOLECULAR_FORMULA>
C15H24

> <PUBCHEM_MOLECULAR_WEIGHT>
204.357

> <PUBCHEM_OPENEYE_CAN_SMILES>
CC(=C)C1CCC2(CCCC(=C)C2C1)C

> <PUBCHEM_OPENEYE_ISO_SMILES>
CC(=C)[C@@H]1CC[C@]2(CCCC(=C)[C@@H]2C1)C

> <PUBCHEM_CACTVS_TPSA>
0

> <PUBCHEM_MONOISOTOPIC_WEIGHT>
204.188

> <PUBCHEM_TOTAL_CHARGE>
0

> <PUBCHEM_HEAVY_ATOM_COUNT>
15

> <PUBCHEM_ATOM_DEF_STEREO_COUNT>
3

> <PUBCHEM_ATOM_UDEF_STEREO_COUNT>
0

> <PUBCHEM_BOND_DEF_STEREO_COUNT>
0

> <PUBCHEM_BOND_UDEF_STEREO_COUNT>
0

> <PUBCHEM_ISOTOPIC_ATOM_COUNT>
0

> <PUBCHEM_COMPONENT_COUNT>
1

> <PUBCHEM_CACTVS_TAUTO_COUNT>
1

> <PUBCHEM_COORDINATE_TYPE>
1
5
255

> <PUBCHEM_BONDANNOTATIONS>
1  10  5
2  16  6
6  12  5

$$$$
519764
  -OEChem-02201912152D

 39 39  0     1  0  0  0  0  0999 V2000
    2.8660   -0.7500    0.0000 C   0  0  3  0  0  0  0  0  0  0  0  0
    2.8660    0.2500    0.0000 C   0  0  3  0  0  0  0  0  0  0  0  0
    2.0000   -1.2500    0.0000 C   0  0  0  0  0  0  0  0  0  0  0  0
    3.7320    0.7500    0.0000 C   0  0  0  0  0  0  0  0  0  0  0  0
    2.0000   -2.2500    0.0000 C   0  0  0  0  0  0  0  0  0  0  0  0
    3.7320   -1.2500    0.0000 C   0  0  0  0  0  0  0  0  0  0  0  0
    2.0000    0.7500    0.0000 C   0  0  0  0  0  0  0  0  0  0  0  0
    3.7320    1.7500    0.0000 C   0  0  0  0  0  0  0  0  0  0  0  0
    2.8660   -2.7500    0.0000 C   0  0  0  0  0  0  0  0  0  0  0  0
    3.7320   -2.2500    0.0000 C   0  0  0  0  0  0  0  0  0  0  0  0
    4.5981    2.2500    0.0000 C   0  0  0  0  0  0  0  0  0  0  0  0
    2.8660   -3.7500    0.0000 C   0  0  0  0  0  0  0  0  0  0  0  0
    4.5981    3.2500    0.0000 C   0  0  0  0  0  0  0  0  0  0  0  0
    5.4641    3.7500    0.0000 C   0  0  0  0  0  0  0  0  0  0  0  0
    3.7320    3.7500    0.0000 C   0  0  0  0  0  0  0  0  0  0  0  0
    3.4030   -0.4400    0.0000 H   0  0  0  0  0  0  0  0  0  0  0  0
    2.8660    0.8700    0.0000 H   0  0  0  0  0  0  0  0  0  0  0  0
    1.7880   -0.6674    0.0000 H   0  0  0  0  0  0  0  0  0  0  0  0
    1.3894   -1.3577    0.0000 H   0  0  0  0  0  0  0  0  0  0  0  0
    3.9441    0.1674    0.0000 H   0  0  0  0  0  0  0  0  0  0  0  0
    4.3426    0.8577    0.0000 H   0  0  0  0  0  0  0  0  0  0  0  0
    1.3894   -2.1423    0.0000 H   0  0  0  0  0  0  0  0  0  0  0  0
    1.7880   -2.8326    0.0000 H   0  0  0  0  0  0  0  0  0  0  0  0
    4.2690   -0.9400    0.0000 H   0  0  0  0  0  0  0  0  0  0  0  0
    2.3100    1.2869    0.0000 H   0  0  0  0  0  0  0  0  0  0  0  0
    1.4631    1.0600    0.0000 H   0  0  0  0  0  0  0  0  0  0  0  0
    1.6900    0.2131    0.0000 H   0  0  0  0  0  0  0  0  0  0  0  0
    3.5200    2.3326    0.0000 H   0  0  0  0  0  0  0  0  0  0  0  0
    3.1215    1.6423    0.0000 H   0  0  0  0  0  0  0  0  0  0  0  0
    4.2690   -2.5600    0.0000 H   0  0  0  0  0  0  0  0  0  0  0  0
    5.1350    1.9400    0.0000 H   0  0  0  0  0  0  0  0  0  0  0  0
    2.3291   -4.0600    0.0000 H   0  0  0  0  0  0  0  0  0  0  0  0
    3.4030   -4.0600    0.0000 H   0  0  0  0  0  0  0  0  0  0  0  0
    4.0420    4.2869    0.0000 H   0  0  0  0  0  0  0  0  0  0  0  0
    3.1951    4.0600    0.0000 H   0  0  0  0  0  0  0  0  0  0  0  0
    3.4220    3.2131    0.0000 H   0  0  0  0  0  0  0  0  0  0  0  0
    5.7741    3.2131    0.0000 H   0  0  0  0  0  0  0  0  0  0  0  0
    6.0010    4.0600    0.0000 H   0  0  0  0  0  0  0  0  0  0  0  0
    5.1541    4.2869    0.0000 H   0  0  0  0  0  0  0  0  0  0  0  0
  1  2  1  0  0  0  0
  1  3  1  0  0  0  0
  1  6  1  0  0  0  0
  1 16  1  0  0  0  0
  2  4  1  0  0  0  0
  2  7  1  0  0  0  0
  2 17  1  0  0  0  0
  3  5  1  0  0  0  0
  3 18  1  0  0  0  0
  3 19  1  0  0  0  0
  4  8  1  0  0  0  0
  4 20  1  0  0  0  0
  4 21  1  0  0  0  0
  5  9  1  0  0  0  0
  5 22  1  0  0  0  0
  5 23  1  0  0  0  0
  6 10  2  0  0  0  0
  6 24  1  0  0  0  0
  7 25  1  0  0  0  0
  7 26  1  0  0  0  0
  7 27  1  0  0  0  0
  8 11  1  0  0  0  0
  8 28  1  0  0  0  0
  8 29  1  0  0  0  0
  9 10  1  0  0  0  0
  9 12  2  0  0  0  0
 10 30  1  0  0  0  0
 11 13  2  0  0  0  0
 11 31  1  0  0  0  0
 12 32  1  0  0  0  0
 12 33  1  0  0  0  0
 13 14  1  0  0  0  0
 13 15  1  0  0  0  0
 14 37  1  0  0  0  0
 14 38  1  0  0  0  0
 14 39  1  0  0  0  0
 15 34  1  0  0  0  0
 15 35  1  0  0  0  0
 15 36  1  0  0  0  0
M  END
> <PUBCHEM_COMPOUND_CID>
519764

> <PUBCHEM_COMPOUND_CANONICALIZED>
1

> <PUBCHEM_CACTVS_COMPLEXITY>
264

> <PUBCHEM_CACTVS_HBOND_ACCEPTOR>
0

> <PUBCHEM_CACTVS_HBOND_DONOR>
0

> <PUBCHEM_CACTVS_ROTATABLE_BOND>
4

> <PUBCHEM_CACTVS_SUBSKEYS>
AAADceBwAAAAAAAAAAAAAAAAAAAAAAAAAAAgAAAAAAAAAAAAAAAAGAAAAAAADQCAAAACAAAAAACAAiBCAAAAAAAgAAAICAAAAAgIAAIAAQAAAAAAgAAIgAMAgMAOgAAAAAAAAAAAAAAAAAAAAAAAAAAAAA==

> <PUBCHEM_IUPAC_OPENEYE_NAME>
3-(1,5-dimethylhex-4-enyl)-6-methylene-cyclohexene

> <PUBCHEM_IUPAC_CAS_NAME>
3-methylene-6-(6-methylhept-5-en-2-yl)cyclohexene

> <PUBCHEM_IUPAC_NAME>
3-(6-methylhept-5-en-2-yl)-6-methylidenecyclohexene

> <PUBCHEM_IUPAC_SYSTEMATIC_NAME>
3-(6-methylhept-5-en-2-yl)-6-methylidene-cyclohexene

> <PUBCHEM_IUPAC_TRADITIONAL_NAME>
3-(1,5-dimethylhex-4-enyl)-6-methylene-cyclohexene

> <PUBCHEM_IUPAC_INCHI>
InChI=1S/C15H24/c1-12(2)6-5-7-14(4)15-10-8-13(3)9-11-15/h6,8,10,14-15H,3,5,7,9,11H2,1-2,4H3

> <PUBCHEM_IUPAC_INCHIKEY>
PHWISBHSBNDZDX-UHFFFAOYSA-N

> <PUBCHEM_XLOGP3_AA>
5.4

> <PUBCHEM_EXACT_MASS>
204.188

> <PUBCHEM_MOLECULAR_FORMULA>
C15H24

> <PUBCHEM_MOLECULAR_WEIGHT>
204.357

> <PUBCHEM_OPENEYE_CAN_SMILES>
CC(CCC=C(C)C)C1CCC(=C)C=C1

> <PUBCHEM_OPENEYE_ISO_SMILES>
CC(CCC=C(C)C)C1CCC(=C)C=C1

> <PUBCHEM_CACTVS_TPSA>
0

> <PUBCHEM_MONOISOTOPIC_WEIGHT>
204.188

> <PUBCHEM_TOTAL_CHARGE>
0

> <PUBCHEM_HEAVY_ATOM_COUNT>
15

> <PUBCHEM_ATOM_DEF_STEREO_COUNT>
0

> <PUBCHEM_ATOM_UDEF_STEREO_COUNT>
2

> <PUBCHEM_BOND_DEF_STEREO_COUNT>
0

> <PUBCHEM_BOND_UDEF_STEREO_COUNT>
0

> <PUBCHEM_ISOTOPIC_ATOM_COUNT>
0

> <PUBCHEM_COMPONENT_COUNT>
1

> <PUBCHEM_CACTVS_TAUTO_COUNT>
-1

> <PUBCHEM_COORDINATE_TYPE>
1
5
255

> <PUBCHEM_BONDANNOTATIONS>
1  6  3
2  7  3

$$$$
25244198
  -OEChem-02201912152D

 39 41  0     1  0  0  0  0  0999 V2000
    2.9986   -0.3765    0.0000 C   0  0  1  0  0  0  0  0  0  0  0  0
    5.8153   -0.2913    0.0000 C   0  0  2  0  0  0  0  0  0  0  0  0
    4.4164   -0.3001    0.0000 C   0  0  1  0  0  0  0  0  0  0  0  0
    4.6752    0.6658    0.0000 C   0  0  3  0  0  0  0  0  0  0  0  0
    5.3659   -1.1800    0.0000 C   0  0  3  0  0  0  0  0  0  0  0  0
    3.5009   -1.2364    0.0000 C   0  0  0  0  0  0  0  0  0  0  0  0
    3.1954    1.3176    0.0000 C   0  0  0  0  0  0  0  0  0  0  0  0
    4.4439   -1.5565    0.0000 C   0  0  0  0  0  0  0  0  0  0  0  0
    4.5967    2.1266    0.0000 C   0  0  0  0  0  0  0  0  0  0  0  0
    2.0000   -0.4302    0.0000 C   0  0  0  0  0  0  0  0  0  0  0  0
    3.6022    2.2311    0.0000 C   0  0  0  0  0  0  0  0  0  0  0  0
    6.0440   -1.9150    0.0000 C   0  0  0  0  0  0  0  0  0  0  0  0
    5.2658    2.8697    0.0000 C   0  0  0  0  0  0  0  0  0  0  0  0
    5.7465   -2.8697    0.0000 C   0  0  0  0  0  0  0  0  0  0  0  0
    7.0195   -1.6953    0.0000 C   0  0  0  0  0  0  0  0  0  0  0  0
    6.6653   -0.2859    0.0000 H   0  0  0  0  0  0  0  0  0  0  0  0
    4.1964   -1.1212    0.0000 H   0  0  0  0  0  0  0  0  0  0  0  0
    5.2299    0.9428    0.0000 H   0  0  0  0  0  0  0  0  0  0  0  0
    5.9800   -1.0944    0.0000 H   0  0  0  0  0  0  0  0  0  0  0  0
    2.8991   -1.3858    0.0000 H   0  0  0  0  0  0  0  0  0  0  0  0
    3.4749   -1.8558    0.0000 H   0  0  0  0  0  0  0  0  0  0  0  0
    2.6793    1.6611    0.0000 H   0  0  0  0  0  0  0  0  0  0  0  0
    2.7702    0.8664    0.0000 H   0  0  0  0  0  0  0  0  0  0  0  0
    4.0874   -2.0638    0.0000 H   0  0  0  0  0  0  0  0  0  0  0  0
    4.8304   -2.0413    0.0000 H   0  0  0  0  0  0  0  0  0  0  0  0
    1.9667    0.1889    0.0000 H   0  0  0  0  0  0  0  0  0  0  0  0
    1.3809   -0.4636    0.0000 H   0  0  0  0  0  0  0  0  0  0  0  0
    2.0333   -1.0493    0.0000 H   0  0  0  0  0  0  0  0  0  0  0  0
    3.7311    2.8376    0.0000 H   0  0  0  0  0  0  0  0  0  0  0  0
    3.0125    2.4227    0.0000 H   0  0  0  0  0  0  0  0  0  0  0  0
    5.4391   -2.0512    0.0000 H   0  0  0  0  0  0  0  0  0  0  0  0
    5.8723    2.7408    0.0000 H   0  0  0  0  0  0  0  0  0  0  0  0
    5.0742    3.4594    0.0000 H   0  0  0  0  0  0  0  0  0  0  0  0
    5.1545   -2.6853    0.0000 H   0  0  0  0  0  0  0  0  0  0  0  0
    5.5620   -3.4616    0.0000 H   0  0  0  0  0  0  0  0  0  0  0  0
    6.3384   -3.0542    0.0000 H   0  0  0  0  0  0  0  0  0  0  0  0
    7.1557   -2.3001    0.0000 H   0  0  0  0  0  0  0  0  0  0  0  0
    7.6244   -1.5590    0.0000 H   0  0  0  0  0  0  0  0  0  0  0  0
    6.8833   -1.0904    0.0000 H   0  0  0  0  0  0  0  0  0  0  0  0
  1  3  1  0  0  0  0
  1  4  1  0  0  0  0
  1  6  1  0  0  0  0
  1 10  1  1  0  0  0
  2  3  1  0  0  0  0
  2  4  1  0  0  0  0
  2  5  1  0  0  0  0
  2 16  1  1  0  0  0
  3  7  1  0  0  0  0
  3 17  1  1  0  0  0
  4  9  1  0  0  0  0
  4 18  1  0  0  0  0
  5  8  1  0  0  0  0
  5 12  1  0  0  0  0
  5 19  1  0  0  0  0
  6  8  1  0  0  0  0
  6 20  1  0  0  0  0
  6 21  1  0  0  0  0
  7 11  1  0  0  0  0
  7 22  1  0  0  0  0
  7 23  1  0  0  0  0
  8 24  1  0  0  0  0
  8 25  1  0  0  0  0
  9 11  1  0  0  0  0
  9 13  2  0  0  0  0
 10 26  1  0  0  0  0
 10 27  1  0  0  0  0
 10 28  1  0  0  0  0
 11 29  1  0  0  0  0
 11 30  1  0  0  0  0
 12 14  1  0  0  0  0
 12 15  1  0  0  0  0
 12 31  1  0  0  0  0
 13 32  1  0  0  0  0
 13 33  1  0  0  0  0
 14 34  1  0  0  0  0
 14 35  1  0  0  0  0
 14 36  1  0  0  0  0
 15 37  1  0  0  0  0
 15 38  1  0  0  0  0
 15 39  1  0  0  0  0
M  END
> <PUBCHEM_COMPOUND_CID>
25244198

> <PUBCHEM_COMPOUND_CANONICALIZED>
1

> <PUBCHEM_CACTVS_COMPLEXITY>
301

> <PUBCHEM_CACTVS_HBOND_ACCEPTOR>
0

> <PUBCHEM_CACTVS_HBOND_DONOR>
0

> <PUBCHEM_CACTVS_ROTATABLE_BOND>
1

> <PUBCHEM_CACTVS_SUBSKEYS>
AAADceBwAAAAAAAAAAAAAAAAAABgAAAAAAAwYMGAAAAAAAAAAAAAGAAAAAAADwCAAAACAAAAAACAAgBCAAAAAAAgAAAAAAAAAAgAAAIAAQAAAAAAgAAAAAEAgMAPgAAAAAAAAACAAAQAACAAAAAAAAAAAA==

> <PUBCHEM_IUPAC_OPENEYE_NAME>
(1~{S},6~{R},7~{R})-8-isopropyl-1-methyl-3-methylene-tricyclo[4.4.0.0^{2,7}]decane

> <PUBCHEM_IUPAC_CAS_NAME>
(1~{S},6~{R},7~{R})-1-methyl-3-methylene-8-propan-2-yltricyclo[4.4.0.0^{2,7}]decane

> <PUBCHEM_IUPAC_NAME>
(1~{S},6~{R},7~{R})-1-methyl-3-methylidene-8-propan-2-yltricyclo[4.4.0.0^{2,7}]decane

> <PUBCHEM_IUPAC_SYSTEMATIC_NAME>
(1~{S},6~{R},7~{R})-1-methyl-3-methylidene-8-propan-2-yl-tricyclo[4.4.0.0^{2,7}]decane

> <PUBCHEM_IUPAC_TRADITIONAL_NAME>
(1~{S},6~{R},7~{R})-8-isopropyl-1-methyl-3-methylene-tricyclo[4.4.0.0^{2,7}]decane

> <PUBCHEM_IUPAC_INCHI>
InChI=1S/C15H24/c1-9(2)11-7-8-15(4)12-6-5-10(3)14(15)13(11)12/h9,11-14H,3,5-8H2,1-2,4H3/t11?,12-,13-,14?,15+/m1/s1

> <PUBCHEM_IUPAC_INCHIKEY>
UPVZPMJSRSWJHQ-KYRRZXGASA-N

> <PUBCHEM_XLOGP3_AA>
4.7

> <PUBCHEM_EXACT_MASS>
204.188

> <PUBCHEM_MOLECULAR_FORMULA>
C15H24

> <PUBCHEM_MOLECULAR_WEIGHT>
204.357

> <PUBCHEM_OPENEYE_CAN_SMILES>
CC(C)C1CCC2(C3C1C2C(=C)CC3)C

> <PUBCHEM_OPENEYE_ISO_SMILES>
CC(C)C1CC[C@]2([C@H]3[C@@H]1C2C(=C)CC3)C

> <PUBCHEM_CACTVS_TPSA>
0

> <PUBCHEM_MONOISOTOPIC_WEIGHT>
204.188

> <PUBCHEM_TOTAL_CHARGE>
0

> <PUBCHEM_HEAVY_ATOM_COUNT>
15

> <PUBCHEM_ATOM_DEF_STEREO_COUNT>
3

> <PUBCHEM_ATOM_UDEF_STEREO_COUNT>
2

> <PUBCHEM_BOND_DEF_STEREO_COUNT>
0

> <PUBCHEM_BOND_UDEF_STEREO_COUNT>
0

> <PUBCHEM_ISOTOPIC_ATOM_COUNT>
0

> <PUBCHEM_COMPONENT_COUNT>
1

> <PUBCHEM_CACTVS_TAUTO_COUNT>
-1

> <PUBCHEM_COORDINATE_TYPE>
1
5
255

> <PUBCHEM_BONDANNOTATIONS>
1  10  5
2  16  5
3  17  5
4  9  3
5  12  3

$$$$
13240187
  -OEChem-02201912152D

 40 42  0     1  0  0  0  0  0999 V2000
    2.6735   -2.2093    0.0000 O   0  0  0  0  0  0  0  0  0  0  0  0
    4.7057    0.6268    0.0000 C   0  0  1  0  0  0  0  0  0  0  0  0
    5.3570    1.3965    0.0000 C   0  0  0  0  0  0  0  0  0  0  0  0
    3.9397    1.2696    0.0000 C   0  0  2  0  0  0  0  0  0  0  0  0
    4.5846    2.0447    0.0000 C   0  0  0  0  0  0  0  0  0  0  0  0
    3.4397   -1.5660    0.0000 C   0  0  2  0  0  0  0  0  0  0  0  0
    4.8794   -0.3580    0.0000 C   0  0  0  0  0  0  0  0  0  0  0  0
    2.5000   -1.2240    0.0000 C   0  0  2  0  0  0  0  0  0  0  0  0
    4.3794   -1.2240    0.0000 C   0  0  0  0  0  0  0  0  0  0  0  0
    2.9397    1.2696    0.0000 C   0  0  0  0  0  0  0  0  0  0  0  0
    2.0000   -0.3580    0.0000 C   0  0  0  0  0  0  0  0  0  0  0  0
    6.0014    2.1613    0.0000 C   0  0  0  0  0  0  0  0  0  0  0  0
    6.1217    0.7522    0.0000 C   0  0  0  0  0  0  0  0  0  0  0  0
    2.1736    0.6268    0.0000 C   0  0  0  0  0  0  0  0  0  0  0  0
    4.3794   -1.9080    0.0000 C   0  0  0  0  0  0  0  0  0  0  0  0
    2.5977    2.2093    0.0000 C   0  0  0  0  0  0  0  0  0  0  0  0
    5.5263    0.4051    0.0000 H   0  0  0  0  0  0  0  0  0  0  0  0
    3.5789    2.0392    0.0000 H   0  0  0  0  0  0  0  0  0  0  0  0
    4.9825    2.5202    0.0000 H   0  0  0  0  0  0  0  0  0  0  0  0
    4.1086    2.4419    0.0000 H   0  0  0  0  0  0  0  0  0  0  0  0
    5.3049   -0.8090    0.0000 H   0  0  0  0  0  0  0  0  0  0  0  0
    5.4334   -0.0797    0.0000 H   0  0  0  0  0  0  0  0  0  0  0  0
    1.7012   -1.5146    0.0000 H   0  0  0  0  0  0  0  0  0  0  0  0
    4.4154   -1.8430    0.0000 H   0  0  0  0  0  0  0  0  0  0  0  0
    4.9827   -1.3670    0.0000 H   0  0  0  0  0  0  0  0  0  0  0  0
    1.4460   -0.0797    0.0000 H   0  0  0  0  0  0  0  0  0  0  0  0
    1.5745   -0.8090    0.0000 H   0  0  0  0  0  0  0  0  0  0  0  0
    5.7222    0.2781    0.0000 H   0  0  0  0  0  0  0  0  0  0  0  0
    6.4755    1.7618    0.0000 H   0  0  0  0  0  0  0  0  0  0  0  0
    6.5959    0.3527    0.0000 H   0  0  0  0  0  0  0  0  0  0  0  0
    6.5212    1.2263    0.0000 H   0  0  0  0  0  0  0  0  0  0  0  0
    6.4009    2.6354    0.0000 H   0  0  0  0  0  0  0  0  0  0  0  0
    5.5273    2.5608    0.0000 H   0  0  0  0  0  0  0  0  0  0  0  0
    1.9281    1.1961    0.0000 H   0  0  0  0  0  0  0  0  0  0  0  0
    1.5578    0.5548    0.0000 H   0  0  0  0  0  0  0  0  0  0  0  0
    4.1673   -2.4907    0.0000 H   0  0  0  0  0  0  0  0  0  0  0  0
    4.9620   -2.1201    0.0000 H   0  0  0  0  0  0  0  0  0  0  0  0
    4.5914   -1.3254    0.0000 H   0  0  0  0  0  0  0  0  0  0  0  0
    2.9962    2.6842    0.0000 H   0  0  0  0  0  0  0  0  0  0  0  0
    1.9871    2.3170    0.0000 H   0  0  0  0  0  0  0  0  0  0  0  0
  1  6  1  0  0  0  0
  1  8  1  0  0  0  0
  2  3  1  0  0  0  0
  2  4  1  0  0  0  0
  2  7  1  0  0  0  0
  2 17  1  1  0  0  0
  3  5  1  0  0  0  0
  3 12  1  0  0  0  0
  3 13  1  0  0  0  0
  4  5  1  0  0  0  0
  4 10  1  0  0  0  0
  4 18  1  6  0  0  0
  5 19  1  0  0  0  0
  5 20  1  0  0  0  0
  6  8  1  0  0  0  0
  6  9  1  0  0  0  0
  6 15  1  1  0  0  0
  7  9  1  0  0  0  0
  7 21  1  0  0  0  0
  7 22  1  0  0  0  0
  8 11  1  0  0  0  0
  8 23  1  6  0  0  0
  9 24  1  0  0  0  0
  9 25  1  0  0  0  0
 10 14  1  0  0  0  0
 10 16  2  0  0  0  0
 11 14  1  0  0  0  0
 11 26  1  0  0  0  0
 11 27  1  0  0  0  0
 12 29  1  0  0  0  0
 12 32  1  0  0  0  0
 12 33  1  0  0  0  0
 13 28  1  0  0  0  0
 13 30  1  0  0  0  0
 13 31  1  0  0  0  0
 14 34  1  0  0  0  0
 14 35  1  0  0  0  0
 15 36  1  0  0  0  0
 15 37  1  0  0  0  0
 15 38  1  0  0  0  0
 16 39  1  0  0  0  0
 16 40  1  0  0  0  0
M  END
> <PUBCHEM_COMPOUND_CID>
13240187

> <PUBCHEM_COMPOUND_CANONICALIZED>
1

> <PUBCHEM_CACTVS_COMPLEXITY>
330

> <PUBCHEM_CACTVS_HBOND_ACCEPTOR>
1

> <PUBCHEM_CACTVS_HBOND_DONOR>
0

> <PUBCHEM_CACTVS_ROTATABLE_BOND>
0

> <PUBCHEM_CACTVS_SUBSKEYS>
AAADceBwIAAAAAAAAAAAAAAAEgBgAAAAAAAAAAAAAAAAAGCQAAAAGgAAAAAAD1SggAICAAAABACAAgBCAAAAAAAgAAAAAAAAAAgAAAIAAQACAAAEgAAAAAGAwPAPgAAAAAAAAAAAAAAAAAAAAAAAAAAAAA==

> <PUBCHEM_IUPAC_OPENEYE_NAME>
(1~{R},4~{S},6~{S},10~{S})-4,12,12-trimethyl-9-methylene-5-oxatricyclo[8.2.0.0^{4,6}]dodecane

> <PUBCHEM_IUPAC_CAS_NAME>
(1~{R},4~{S},6~{S},10~{S})-4,12,12-trimethyl-9-methylene-5-oxatricyclo[8.2.0.0^{4,6}]dodecane

> <PUBCHEM_IUPAC_NAME>
(1~{R},4~{S},6~{S},10~{S})-4,12,12-trimethyl-9-methylidene-5-oxatricyclo[8.2.0.0^{4,6}]dodecane

> <PUBCHEM_IUPAC_SYSTEMATIC_NAME>
(1~{R},4~{S},6~{S},10~{S})-4,12,12-trimethyl-9-methylidene-5-oxatricyclo[8.2.0.0^{4,6}]dodecane

> <PUBCHEM_IUPAC_TRADITIONAL_NAME>
(1~{R},4~{S},6~{S},10~{S})-4,12,12-trimethyl-9-methylene-5-oxatricyclo[8.2.0.0^{4,6}]dodecane

> <PUBCHEM_IUPAC_INCHI>
InChI=1S/C15H24O/c1-10-5-6-13-15(4,16-13)8-7-12-11(10)9-14(12,2)3/h11-13H,1,5-9H2,2-4H3/t11-,12-,13+,15+/m1/s1

> <PUBCHEM_IUPAC_INCHIKEY>
NVEQFIOZRFFVFW-CXTNEJHOSA-N

> <PUBCHEM_XLOGP3_AA>
3.6

> <PUBCHEM_EXACT_MASS>
220.183

> <PUBCHEM_MOLECULAR_FORMULA>
C15H24O

> <PUBCHEM_MOLECULAR_WEIGHT>
220.356

> <PUBCHEM_OPENEYE_CAN_SMILES>
CC1(CC2C1CCC3(C(O3)CCC2=C)C)C

> <PUBCHEM_OPENEYE_ISO_SMILES>
C[C@]12CC[C@@H]3[C@H](CC3(C)C)C(=C)CC[C@@H]1O2

> <PUBCHEM_CACTVS_TPSA>
12.5

> <PUBCHEM_MONOISOTOPIC_WEIGHT>
220.183

> <PUBCHEM_TOTAL_CHARGE>
0

> <PUBCHEM_HEAVY_ATOM_COUNT>
16

> <PUBCHEM_ATOM_DEF_STEREO_COUNT>
4

> <PUBCHEM_ATOM_UDEF_STEREO_COUNT>
0

> <PUBCHEM_BOND_DEF_STEREO_COUNT>
0

> <PUBCHEM_BOND_UDEF_STEREO_COUNT>
0

> <PUBCHEM_ISOTOPIC_ATOM_COUNT>
0

> <PUBCHEM_COMPONENT_COUNT>
1

> <PUBCHEM_CACTVS_TAUTO_COUNT>
-1

> <PUBCHEM_COORDINATE_TYPE>
1
5
255

> <PUBCHEM_BONDANNOTATIONS>
2  17  5
4  18  6
6  15  5
8  23  6

$$$$
1742210
  -OEChem-02201912152D

 40 42  0     1  0  0  0  0  0999 V2000
    2.6735   -2.2093    0.0000 O   0  0  0  0  0  0  0  0  0  0  0  0
    4.7057    0.6268    0.0000 C   0  0  1  0  0  0  0  0  0  0  0  0
    5.3570    1.3965    0.0000 C   0  0  0  0  0  0  0  0  0  0  0  0
    3.9397    1.2696    0.0000 C   0  0  2  0  0  0  0  0  0  0  0  0
    4.5846    2.0447    0.0000 C   0  0  0  0  0  0  0  0  0  0  0  0
    3.4397   -1.5660    0.0000 C   0  0  1  0  0  0  0  0  0  0  0  0
    4.8794   -0.3580    0.0000 C   0  0  0  0  0  0  0  0  0  0  0  0
    2.5000   -1.2240    0.0000 C   0  0  1  0  0  0  0  0  0  0  0  0
    4.3794   -1.2240    0.0000 C   0  0  0  0  0  0  0  0  0  0  0  0
    2.9397    1.2696    0.0000 C   0  0  0  0  0  0  0  0  0  0  0  0
    2.0000   -0.3580    0.0000 C   0  0  0  0  0  0  0  0  0  0  0  0
    6.0014    2.1613    0.0000 C   0  0  0  0  0  0  0  0  0  0  0  0
    6.1217    0.7522    0.0000 C   0  0  0  0  0  0  0  0  0  0  0  0
    2.1736    0.6268    0.0000 C   0  0  0  0  0  0  0  0  0  0  0  0
    4.3794   -1.9080    0.0000 C   0  0  0  0  0  0  0  0  0  0  0  0
    2.5977    2.2093    0.0000 C   0  0  0  0  0  0  0  0  0  0  0  0
    5.5263    0.4051    0.0000 H   0  0  0  0  0  0  0  0  0  0  0  0
    3.5789    2.0392    0.0000 H   0  0  0  0  0  0  0  0  0  0  0  0
    4.9825    2.5202    0.0000 H   0  0  0  0  0  0  0  0  0  0  0  0
    4.1086    2.4419    0.0000 H   0  0  0  0  0  0  0  0  0  0  0  0
    5.3049   -0.8090    0.0000 H   0  0  0  0  0  0  0  0  0  0  0  0
    5.4334   -0.0797    0.0000 H   0  0  0  0  0  0  0  0  0  0  0  0
    1.7012   -1.5146    0.0000 H   0  0  0  0  0  0  0  0  0  0  0  0
    4.4154   -1.8430    0.0000 H   0  0  0  0  0  0  0  0  0  0  0  0
    4.9827   -1.3670    0.0000 H   0  0  0  0  0  0  0  0  0  0  0  0
    1.4460   -0.0797    0.0000 H   0  0  0  0  0  0  0  0  0  0  0  0
    1.5745   -0.8090    0.0000 H   0  0  0  0  0  0  0  0  0  0  0  0
    6.4755    1.7618    0.0000 H   0  0  0  0  0  0  0  0  0  0  0  0
    6.4009    2.6354    0.0000 H   0  0  0  0  0  0  0  0  0  0  0  0
    5.5273    2.5608    0.0000 H   0  0  0  0  0  0  0  0  0  0  0  0
    5.7222    0.2781    0.0000 H   0  0  0  0  0  0  0  0  0  0  0  0
    6.5959    0.3527    0.0000 H   0  0  0  0  0  0  0  0  0  0  0  0
    6.5212    1.2263    0.0000 H   0  0  0  0  0  0  0  0  0  0  0  0
    1.9281    1.1961    0.0000 H   0  0  0  0  0  0  0  0  0  0  0  0
    1.5578    0.5548    0.0000 H   0  0  0  0  0  0  0  0  0  0  0  0
    4.1673   -2.4907    0.0000 H   0  0  0  0  0  0  0  0  0  0  0  0
    4.9620   -2.1201    0.0000 H   0  0  0  0  0  0  0  0  0  0  0  0
    4.5914   -1.3254    0.0000 H   0  0  0  0  0  0  0  0  0  0  0  0
    2.9962    2.6842    0.0000 H   0  0  0  0  0  0  0  0  0  0  0  0
    1.9871    2.3170    0.0000 H   0  0  0  0  0  0  0  0  0  0  0  0
  1  6  1  0  0  0  0
  1  8  1  0  0  0  0
  2  3  1  0  0  0  0
  2  4  1  0  0  0  0
  2  7  1  0  0  0  0
  2 17  1  1  0  0  0
  3  5  1  0  0  0  0
  3 12  1  0  0  0  0
  3 13  1  0  0  0  0
  4  5  1  0  0  0  0
  4 10  1  0  0  0  0
  4 18  1  6  0  0  0
  5 19  1  0  0  0  0
  5 20  1  0  0  0  0
  6  8  1  0  0  0  0
  6  9  1  0  0  0  0
  6 15  1  6  0  0  0
  7  9  1  0  0  0  0
  7 21  1  0  0  0  0
  7 22  1  0  0  0  0
  8 11  1  0  0  0  0
  8 23  1  1  0  0  0
  9 24  1  0  0  0  0
  9 25  1  0  0  0  0
 10 14  1  0  0  0  0
 10 16  2  0  0  0  0
 11 14  1  0  0  0  0
 11 26  1  0  0  0  0
 11 27  1  0  0  0  0
 12 28  1  0  0  0  0
 12 29  1  0  0  0  0
 12 30  1  0  0  0  0
 13 31  1  0  0  0  0
 13 32  1  0  0  0  0
 13 33  1  0  0  0  0
 14 34  1  0  0  0  0
 14 35  1  0  0  0  0
 15 36  1  0  0  0  0
 15 37  1  0  0  0  0
 15 38  1  0  0  0  0
 16 39  1  0  0  0  0
 16 40  1  0  0  0  0
M  END
> <PUBCHEM_COMPOUND_CID>
1742210

> <PUBCHEM_COMPOUND_CANONICALIZED>
1

> <PUBCHEM_CACTVS_COMPLEXITY>
330

> <PUBCHEM_CACTVS_HBOND_ACCEPTOR>
1

> <PUBCHEM_CACTVS_HBOND_DONOR>
0

> <PUBCHEM_CACTVS_ROTATABLE_BOND>
0

> <PUBCHEM_CACTVS_SUBSKEYS>
AAADceBwIAAAAAAAAAAAAAAAEgBgAAAAAAAAAAAAAAAAAGCQAAAAGgAAAAAAD1SggAICAAAABACAAgBCAAAAAAAgAAAAAAAAAAgAAAIAAQACAAAEgAAAAAGAwPAPgAAAAAAAAAAAAAAAAAAAAAAAAAAAAA==

> <PUBCHEM_IUPAC_OPENEYE_NAME>
(1~{R},4~{R},6~{R},10~{S})-4,12,12-trimethyl-9-methylene-5-oxatricyclo[8.2.0.0^{4,6}]dodecane

> <PUBCHEM_IUPAC_CAS_NAME>
(1~{R},4~{R},6~{R},10~{S})-4,12,12-trimethyl-9-methylene-5-oxatricyclo[8.2.0.0^{4,6}]dodecane

> <PUBCHEM_IUPAC_NAME>
(1~{R},4~{R},6~{R},10~{S})-4,12,12-trimethyl-9-methylidene-5-oxatricyclo[8.2.0.0^{4,6}]dodecane

> <PUBCHEM_IUPAC_SYSTEMATIC_NAME>
(1~{R},4~{R},6~{R},10~{S})-4,12,12-trimethyl-9-methylidene-5-oxatricyclo[8.2.0.0^{4,6}]dodecane

> <PUBCHEM_IUPAC_TRADITIONAL_NAME>
(1~{R},4~{R},6~{R},10~{S})-4,12,12-trimethyl-9-methylene-5-oxatricyclo[8.2.0.0^{4,6}]dodecane

> <PUBCHEM_IUPAC_INCHI>
InChI=1S/C15H24O/c1-10-5-6-13-15(4,16-13)8-7-12-11(10)9-14(12,2)3/h11-13H,1,5-9H2,2-4H3/t11-,12-,13-,15-/m1/s1

> <PUBCHEM_IUPAC_INCHIKEY>
NVEQFIOZRFFVFW-RGCMKSIDSA-N

> <PUBCHEM_XLOGP3_AA>
3.6

> <PUBCHEM_EXACT_MASS>
220.183

> <PUBCHEM_MOLECULAR_FORMULA>
C15H24O

> <PUBCHEM_MOLECULAR_WEIGHT>
220.356

> <PUBCHEM_OPENEYE_CAN_SMILES>
CC1(CC2C1CCC3(C(O3)CCC2=C)C)C

> <PUBCHEM_OPENEYE_ISO_SMILES>
C[C@@]12CC[C@@H]3[C@H](CC3(C)C)C(=C)CC[C@H]1O2

> <PUBCHEM_CACTVS_TPSA>
12.5

> <PUBCHEM_MONOISOTOPIC_WEIGHT>
220.183

> <PUBCHEM_TOTAL_CHARGE>
0

> <PUBCHEM_HEAVY_ATOM_COUNT>
16

> <PUBCHEM_ATOM_DEF_STEREO_COUNT>
4

> <PUBCHEM_ATOM_UDEF_STEREO_COUNT>
0

> <PUBCHEM_BOND_DEF_STEREO_COUNT>
0

> <PUBCHEM_BOND_UDEF_STEREO_COUNT>
0

> <PUBCHEM_ISOTOPIC_ATOM_COUNT>
0

> <PUBCHEM_COMPONENT_COUNT>
1

> <PUBCHEM_CACTVS_TAUTO_COUNT>
-1

> <PUBCHEM_COORDINATE_TYPE>
1
5
255

> <PUBCHEM_BONDANNOTATIONS>
2  17  5
4  18  6
6  15  6
8  23  5

$$$$
441005
  -OEChem-02201912152D

 39 40  0     1  0  0  0  0  0999 V2000
    2.8660   -0.7500    0.0000 C   0  0  1  0  0  0  0  0  0  0  0  0
    3.7320   -0.2500    0.0000 C   0  0  1  0  0  0  0  0  0  0  0  0
    2.0000   -0.2500    0.0000 C   0  0  0  0  0  0  0  0  0  0  0  0
    3.7320    0.7500    0.0000 C   0  0  0  0  0  0  0  0  0  0  0  0
    2.8660   -1.7500    0.0000 C   0  0  0  0  0  0  0  0  0  0  0  0
    2.0000    0.7500    0.0000 C   0  0  0  0  0  0  0  0  0  0  0  0
    2.8660    1.2500    0.0000 C   0  0  0  0  0  0  0  0  0  0  0  0
    4.6260    1.2847    0.0000 C   0  0  0  0  0  0  0  0  0  0  0  0
    4.6260   -0.7847    0.0000 C   0  0  0  0  0  0  0  0  0  0  0  0
    5.5321    0.7708    0.0000 C   0  0  0  0  0  0  0  0  0  0  0  0
    5.5321   -0.2708    0.0000 C   0  0  0  0  0  0  0  0  0  0  0  0
    2.0000   -2.2500    0.0000 C   0  0  0  0  0  0  0  0  0  0  0  0
    3.7320   -2.2500    0.0000 C   0  0  0  0  0  0  0  0  0  0  0  0
    2.8660    2.2500    0.0000 C   0  0  0  0  0  0  0  0  0  0  0  0
    6.3961   -0.7742    0.0000 C   0  0  0  0  0  0  0  0  0  0  0  0
    2.3291   -1.0600    0.0000 H   0  0  0  0  0  0  0  0  0  0  0  0
    3.7255   -1.1000    0.0000 H   0  0  0  0  0  0  0  0  0  0  0  0
    1.3894   -0.1423    0.0000 H   0  0  0  0  0  0  0  0  0  0  0  0
    1.7880   -0.8326    0.0000 H   0  0  0  0  0  0  0  0  0  0  0  0
    2.8660   -2.3700    0.0000 H   0  0  0  0  0  0  0  0  0  0  0  0
    1.7880    1.3326    0.0000 H   0  0  0  0  0  0  0  0  0  0  0  0
    1.3894    0.6423    0.0000 H   0  0  0  0  0  0  0  0  0  0  0  0
    5.0196    1.7637    0.0000 H   0  0  0  0  0  0  0  0  0  0  0  0
    4.2214    1.7544    0.0000 H   0  0  0  0  0  0  0  0  0  0  0  0
    4.6188   -1.4046    0.0000 H   0  0  0  0  0  0  0  0  0  0  0  0
    6.1429    0.6647    0.0000 H   0  0  0  0  0  0  0  0  0  0  0  0
    5.7411    1.3545    0.0000 H   0  0  0  0  0  0  0  0  0  0  0  0
    1.6900   -1.7131    0.0000 H   0  0  0  0  0  0  0  0  0  0  0  0
    1.4631   -2.5600    0.0000 H   0  0  0  0  0  0  0  0  0  0  0  0
    2.3100   -2.7869    0.0000 H   0  0  0  0  0  0  0  0  0  0  0  0
    3.4220   -2.7869    0.0000 H   0  0  0  0  0  0  0  0  0  0  0  0
    4.2690   -2.5600    0.0000 H   0  0  0  0  0  0  0  0  0  0  0  0
    4.0420   -1.7131    0.0000 H   0  0  0  0  0  0  0  0  0  0  0  0
    3.4860    2.2500    0.0000 H   0  0  0  0  0  0  0  0  0  0  0  0
    2.8660    2.8700    0.0000 H   0  0  0  0  0  0  0  0  0  0  0  0
    2.2460    2.2500    0.0000 H   0  0  0  0  0  0  0  0  0  0  0  0
    6.0841   -1.3099    0.0000 H   0  0  0  0  0  0  0  0  0  0  0  0
    6.9319   -1.0862    0.0000 H   0  0  0  0  0  0  0  0  0  0  0  0
    6.7082   -0.2384    0.0000 H   0  0  0  0  0  0  0  0  0  0  0  0
  1  2  1  0  0  0  0
  1  3  1  0  0  0  0
  1  5  1  6  0  0  0
  1 16  1  0  0  0  0
  2  4  1  0  0  0  0
  2  9  1  0  0  0  0
  2 17  1  6  0  0  0
  3  6  1  0  0  0  0
  3 18  1  0  0  0  0
  3 19  1  0  0  0  0
  4  7  2  0  0  0  0
  4  8  1  0  0  0  0
  5 12  1  0  0  0  0
  5 13  1  0  0  0  0
  5 20  1  0  0  0  0
  6  7  1  0  0  0  0
  6 21  1  0  0  0  0
  6 22  1  0  0  0  0
  7 14  1  0  0  0  0
  8 10  1  0  0  0  0
  8 23  1  0  0  0  0
  8 24  1  0  0  0  0
  9 11  2  0  0  0  0
  9 25  1  0  0  0  0
 10 11  1  0  0  0  0
 10 26  1  0  0  0  0
 10 27  1  0  0  0  0
 11 15  1  0  0  0  0
 12 28  1  0  0  0  0
 12 29  1  0  0  0  0
 12 30  1  0  0  0  0
 13 31  1  0  0  0  0
 13 32  1  0  0  0  0
 13 33  1  0  0  0  0
 14 34  1  0  0  0  0
 14 35  1  0  0  0  0
 14 36  1  0  0  0  0
 15 37  1  0  0  0  0
 15 38  1  0  0  0  0
 15 39  1  0  0  0  0
M  END
> <PUBCHEM_COMPOUND_CID>
441005

> <PUBCHEM_COMPOUND_CANONICALIZED>
1

> <PUBCHEM_CACTVS_COMPLEXITY>
304

> <PUBCHEM_CACTVS_HBOND_ACCEPTOR>
0

> <PUBCHEM_CACTVS_HBOND_DONOR>
0

> <PUBCHEM_CACTVS_ROTATABLE_BOND>
1

> <PUBCHEM_CACTVS_SUBSKEYS>
AAADceBwAAAAAAAAAAAAAAAAAAAAAAAAAAAgQAAAAAAAAACAAAAAGAAAAAAADQCAAAACAAAAAACAAiBCAAAAAAAgAAAACAAAAAgAAAIAAQAAAAAAgAAIAAMAgMAOgAAAAAAAAAAAAAAAAAAAAAAAAAAAAA==

> <PUBCHEM_IUPAC_OPENEYE_NAME>
(1~{S},8~{a}~{R})-1-isopropyl-4,7-dimethyl-1,2,3,5,6,8~{a}-hexahydronaphthalene

> <PUBCHEM_IUPAC_CAS_NAME>
(1~{S},8~{a}~{R})-4,7-dimethyl-1-propan-2-yl-1,2,3,5,6,8~{a}-hexahydronaphthalene

> <PUBCHEM_IUPAC_NAME>
(1~{S},8~{a}~{R})-4,7-dimethyl-1-propan-2-yl-1,2,3,5,6,8~{a}-hexahydronaphthalene

> <PUBCHEM_IUPAC_SYSTEMATIC_NAME>
(1~{S},8~{a}~{R})-4,7-dimethyl-1-propan-2-yl-1,2,3,5,6,8~{a}-hexahydronaphthalene

> <PUBCHEM_IUPAC_TRADITIONAL_NAME>
(1~{S},8~{a}~{R})-1-isopropyl-4,7-dimethyl-1,2,3,5,6,8~{a}-hexahydronaphthalene

> <PUBCHEM_IUPAC_INCHI>
InChI=1S/C15H24/c1-10(2)13-8-6-12(4)14-7-5-11(3)9-15(13)14/h9-10,13,15H,5-8H2,1-4H3/t13-,15-/m0/s1

> <PUBCHEM_IUPAC_INCHIKEY>
FUCYIEXQVQJBKY-ZFWWWQNUSA-N

> <PUBCHEM_XLOGP3_AA>
3.8

> <PUBCHEM_EXACT_MASS>
204.188

> <PUBCHEM_MOLECULAR_FORMULA>
C15H24

> <PUBCHEM_MOLECULAR_WEIGHT>
204.357

> <PUBCHEM_OPENEYE_CAN_SMILES>
CC1=CC2C(CCC(=C2CC1)C)C(C)C

> <PUBCHEM_OPENEYE_ISO_SMILES>
CC1=C[C@H]2[C@@H](CCC(=C2CC1)C)C(C)C

> <PUBCHEM_CACTVS_TPSA>
0

> <PUBCHEM_MONOISOTOPIC_WEIGHT>
204.188

> <PUBCHEM_TOTAL_CHARGE>
0

> <PUBCHEM_HEAVY_ATOM_COUNT>
15

> <PUBCHEM_ATOM_DEF_STEREO_COUNT>
2

> <PUBCHEM_ATOM_UDEF_STEREO_COUNT>
0

> <PUBCHEM_BOND_DEF_STEREO_COUNT>
0

> <PUBCHEM_BOND_UDEF_STEREO_COUNT>
0

> <PUBCHEM_ISOTOPIC_ATOM_COUNT>
0

> <PUBCHEM_COMPONENT_COUNT>
1

> <PUBCHEM_CACTVS_TAUTO_COUNT>
-1

> <PUBCHEM_COORDINATE_TYPE>
1
5
255

> <PUBCHEM_BONDANNOTATIONS>
1  5  6
2  17  6

$$$$
5281516_2
  -OEChem-02201912152D

 39 38  0     0  0  0  0  0  0999 V2000
    5.4641    0.4400    0.0000 C   0  0  0  0  0  0  0  0  0  0  0  0
    4.5981   -0.0600    0.0000 C   0  0  0  0  0  0  0  0  0  0  0  0
    6.3301   -0.0600    0.0000 C   0  0  0  0  0  0  0  0  0  0  0  0
    7.1962    0.4400    0.0000 C   0  0  0  0  0  0  0  0  0  0  0  0
    3.7320    0.4400    0.0000 C   0  0  0  0  0  0  0  0  0  0  0  0
    8.0622   -0.0600    0.0000 C   0  0  0  0  0  0  0  0  0  0  0  0
    6.3301   -1.0600    0.0000 C   0  0  0  0  0  0  0  0  0  0  0  0
    2.8660   -0.0600    0.0000 C   0  0  0  0  0  0  0  0  0  0  0  0
    8.9282    0.4400    0.0000 C   0  0  0  0  0  0  0  0  0  0  0  0
    2.0000    0.4400    0.0000 C   0  0  0  0  0  0  0  0  0  0  0  0
    2.8660   -1.0600    0.0000 C   0  0  0  0  0  0  0  0  0  0  0  0
    9.7942   -0.0600    0.0000 C   0  0  0  0  0  0  0  0  0  0  0  0
    9.7942   -1.0600    0.0000 C   0  0  0  0  0  0  0  0  0  0  0  0
   10.6603    0.4400    0.0000 C   0  0  0  0  0  0  0  0  0  0  0  0
   11.5263   -0.0600    0.0000 C   0  0  0  0  0  0  0  0  0  0  0  0
    5.8626    0.9149    0.0000 H   0  0  0  0  0  0  0  0  0  0  0  0
    5.0656    0.9149    0.0000 H   0  0  0  0  0  0  0  0  0  0  0  0
    4.1996   -0.5349    0.0000 H   0  0  0  0  0  0  0  0  0  0  0  0
    4.9966   -0.5349    0.0000 H   0  0  0  0  0  0  0  0  0  0  0  0
    7.1962    1.0600    0.0000 H   0  0  0  0  0  0  0  0  0  0  0  0
    3.7320    1.0600    0.0000 H   0  0  0  0  0  0  0  0  0  0  0  0
    7.6636   -0.5349    0.0000 H   0  0  0  0  0  0  0  0  0  0  0  0
    8.4607   -0.5349    0.0000 H   0  0  0  0  0  0  0  0  0  0  0  0
    5.7101   -1.0600    0.0000 H   0  0  0  0  0  0  0  0  0  0  0  0
    6.3301   -1.6800    0.0000 H   0  0  0  0  0  0  0  0  0  0  0  0
    6.9501   -1.0600    0.0000 H   0  0  0  0  0  0  0  0  0  0  0  0
    8.9282    1.0600    0.0000 H   0  0  0  0  0  0  0  0  0  0  0  0
    2.2460   -1.0600    0.0000 H   0  0  0  0  0  0  0  0  0  0  0  0
    2.8660   -1.6800    0.0000 H   0  0  0  0  0  0  0  0  0  0  0  0
    3.4860   -1.0600    0.0000 H   0  0  0  0  0  0  0  0  0  0  0  0
    2.3100    0.9769    0.0000 H   0  0  0  0  0  0  0  0  0  0  0  0
    1.4631    0.7500    0.0000 H   0  0  0  0  0  0  0  0  0  0  0  0
    1.6900   -0.0969    0.0000 H   0  0  0  0  0  0  0  0  0  0  0  0
    9.1742   -1.0600    0.0000 H   0  0  0  0  0  0  0  0  0  0  0  0
    9.7942   -1.6800    0.0000 H   0  0  0  0  0  0  0  0  0  0  0  0
   10.4142   -1.0600    0.0000 H   0  0  0  0  0  0  0  0  0  0  0  0
   10.6603    1.0600    0.0000 H   0  0  0  0  0  0  0  0  0  0  0  0
   11.5263   -0.6800    0.0000 H   0  0  0  0  0  0  0  0  0  0  0  0
   12.0632    0.2500    0.0000 H   0  0  0  0  0  0  0  0  0  0  0  0
  1  2  1  0  0  0  0
  1  3  1  0  0  0  0
  1 16  1  0  0  0  0
  1 17  1  0  0  0  0
  2  5  1  0  0  0  0
  2 18  1  0  0  0  0
  2 19  1  0  0  0  0
  3  4  2  0  0  0  0
  3  7  1  0  0  0  0
  4  6  1  0  0  0  0
  4 20  1  0  0  0  0
  5  8  2  0  0  0  0
  5 21  1  0  0  0  0
  6  9  1  0  0  0  0
  6 22  1  0  0  0  0
  6 23  1  0  0  0  0
  7 24  1  0  0  0  0
  7 25  1  0  0  0  0
  7 26  1  0  0  0  0
  8 10  1  0  0  0  0
  8 11  1  0  0  0  0
  9 12  2  0  0  0  0
  9 27  1  0  0  0  0
 10 31  1  0  0  0  0
 10 32  1  0  0  0  0
 10 33  1  0  0  0  0
 11 28  1  0  0  0  0
 11 29  1  0  0  0  0
 11 30  1  0  0  0  0
 12 13  1  0  0  0  0
 12 14  1  0  0  0  0
 13 34  1  0  0  0  0
 13 35  1  0  0  0  0
 13 36  1  0  0  0  0
 14 15  2  0  0  0  0
 14 37  1  0  0  0  0
 15 38  1  0  0  0  0
 15 39  1  0  0  0  0
M  END
> <PUBCHEM_COMPOUND_CID>
5281516

> <PUBCHEM_COMPOUND_CANONICALIZED>
1

> <PUBCHEM_CACTVS_COMPLEXITY>
270

> <PUBCHEM_CACTVS_HBOND_ACCEPTOR>
0

> <PUBCHEM_CACTVS_HBOND_DONOR>
0

> <PUBCHEM_CACTVS_ROTATABLE_BOND>
6

> <PUBCHEM_CACTVS_SUBSKEYS>
AAADceBwAAAAAAAAAAAAAAAAAAAAAAAAAAAAAAAAAAAAAAAAAAAAGAAAAAAADACAAAACAAAAAACAAiBCAAAAAAAgAAAICAAAAAgIAAIAAQAAAAAAgAAIgAIAAAAAAAAAAAAAAAAAAAAAAAAAAAAAAAAAAA==

> <PUBCHEM_IUPAC_OPENEYE_NAME>
(3~{E},6~{E})-3,7,11-trimethyldodeca-1,3,6,10-tetraene

> <PUBCHEM_IUPAC_CAS_NAME>
(3~{E},6~{E})-3,7,11-trimethyldodeca-1,3,6,10-tetraene

> <PUBCHEM_IUPAC_NAME>
(3~{E},6~{E})-3,7,11-trimethyldodeca-1,3,6,10-tetraene

> <PUBCHEM_IUPAC_SYSTEMATIC_NAME>
(3~{E},6~{E})-3,7,11-trimethyldodeca-1,3,6,10-tetraene

> <PUBCHEM_IUPAC_TRADITIONAL_NAME>
(3~{E},6~{E})-3,7,11-trimethyldodeca-1,3,6,10-tetraene

> <PUBCHEM_IUPAC_INCHI>
InChI=1S/C15H24/c1-6-14(4)10-8-12-15(5)11-7-9-13(2)3/h6,9-10,12H,1,7-8,11H2,2-5H3/b14-10+,15-12+

> <PUBCHEM_IUPAC_INCHIKEY>
CXENHBSYCFFKJS-VDQVFBMKSA-N

> <PUBCHEM_XLOGP3_AA>
6.1

> <PUBCHEM_EXACT_MASS>
204.188

> <PUBCHEM_MOLECULAR_FORMULA>
C15H24

> <PUBCHEM_MOLECULAR_WEIGHT>
204.357

> <PUBCHEM_OPENEYE_CAN_SMILES>
CC(=CCCC(=CCC=C(C)C=C)C)C

> <PUBCHEM_OPENEYE_ISO_SMILES>
CC(=CCC/C(=C/C/C=C(\C)/C=C)/C)C

> <PUBCHEM_CACTVS_TPSA>
0

> <PUBCHEM_MONOISOTOPIC_WEIGHT>
204.188

> <PUBCHEM_TOTAL_CHARGE>
0

> <PUBCHEM_HEAVY_ATOM_COUNT>
15

> <PUBCHEM_ATOM_DEF_STEREO_COUNT>
0

> <PUBCHEM_ATOM_UDEF_STEREO_COUNT>
0

> <PUBCHEM_BOND_DEF_STEREO_COUNT>
2

> <PUBCHEM_BOND_UDEF_STEREO_COUNT>
0

> <PUBCHEM_ISOTOPIC_ATOM_COUNT>
0

> <PUBCHEM_COMPONENT_COUNT>
1

> <PUBCHEM_CACTVS_TAUTO_COUNT>
-1

> <PUBCHEM_COORDINATE_TYPE>
1
5
255

$$$$
6429302_2
  -OEChem-02201912152D

 39 40  0     1  0  0  0  0  0999 V2000
    5.4490    0.3292    0.0000 C   0  0  2  0  0  0  0  0  0  0  0  0
    4.3089    1.2863    0.0000 C   0  0  2  0  0  0  0  0  0  0  0  0
    4.0501    0.3204    0.0000 C   0  0  1  0  0  0  0  0  0  0  0  0
    3.5723    2.2689    0.0000 C   0  0  0  0  0  0  0  0  0  0  0  0
    2.2756    0.9752    0.0000 C   0  0  0  0  0  0  0  0  0  0  0  0
    5.9490   -0.5368    0.0000 C   0  0  0  0  0  0  0  0  0  0  0  0
    2.8290   -0.5453    0.0000 C   0  0  0  0  0  0  0  0  0  0  0  0
    6.3150    0.8292    0.0000 C   0  0  0  0  0  0  0  0  0  0  0  0
    2.0000    0.0139    0.0000 C   0  0  0  0  0  0  0  0  0  0  0  0
    6.9490   -0.5368    0.0000 C   0  0  0  0  0  0  0  0  0  0  0  0
    2.8639   -1.5447    0.0000 C   0  0  0  0  0  0  0  0  0  0  0  0
    7.4490   -1.4029    0.0000 C   0  0  0  0  0  0  0  0  0  0  0  0
    8.4490   -1.4029    0.0000 C   0  0  0  0  0  0  0  0  0  0  0  0
    8.9490   -2.2689    0.0000 C   0  0  0  0  0  0  0  0  0  0  0  0
    8.9490   -0.5368    0.0000 C   0  0  0  0  0  0  0  0  0  0  0  0
    4.5289    2.1073    0.0000 H   0  0  0  0  0  0  0  0  0  0  0  0
    3.8301   -0.5007    0.0000 H   0  0  0  0  0  0  0  0  0  0  0  0
    3.8901    2.8012    0.0000 H   0  0  0  0  0  0  0  0  0  0  0  0
    2.9591    2.3608    0.0000 H   0  0  0  0  0  0  0  0  0  0  0  0
    2.2706    1.5951    0.0000 H   0  0  0  0  0  0  0  0  0  0  0  0
    1.6613    1.0589    0.0000 H   0  0  0  0  0  0  0  0  0  0  0  0
    5.3664   -0.7489    0.0000 H   0  0  0  0  0  0  0  0  0  0  0  0
    6.0567   -1.1474    0.0000 H   0  0  0  0  0  0  0  0  0  0  0  0
    6.6250    0.2922    0.0000 H   0  0  0  0  0  0  0  0  0  0  0  0
    6.8520    1.1392    0.0000 H   0  0  0  0  0  0  0  0  0  0  0  0
    6.0050    1.3661    0.0000 H   0  0  0  0  0  0  0  0  0  0  0  0
    1.4174   -0.1982    0.0000 H   0  0  0  0  0  0  0  0  0  0  0  0
    7.5316   -0.3248    0.0000 H   0  0  0  0  0  0  0  0  0  0  0  0
    6.8413    0.0737    0.0000 H   0  0  0  0  0  0  0  0  0  0  0  0
    2.2443   -1.5663    0.0000 H   0  0  0  0  0  0  0  0  0  0  0  0
    2.8856   -2.1643    0.0000 H   0  0  0  0  0  0  0  0  0  0  0  0
    3.4836   -1.5231    0.0000 H   0  0  0  0  0  0  0  0  0  0  0  0
    7.1390   -1.9398    0.0000 H   0  0  0  0  0  0  0  0  0  0  0  0
    9.4859   -0.8468    0.0000 H   0  0  0  0  0  0  0  0  0  0  0  0
    9.2590    0.0001    0.0000 H   0  0  0  0  0  0  0  0  0  0  0  0
    8.4121   -0.2268    0.0000 H   0  0  0  0  0  0  0  0  0  0  0  0
    8.4121   -2.5789    0.0000 H   0  0  0  0  0  0  0  0  0  0  0  0
    9.2590   -2.8058    0.0000 H   0  0  0  0  0  0  0  0  0  0  0  0
    9.4859   -1.9589    0.0000 H   0  0  0  0  0  0  0  0  0  0  0  0
  1  2  1  0  0  0  0
  1  3  1  0  0  0  0
  1  6  1  0  0  0  0
  1  8  1  6  0  0  0
  2  4  1  0  0  0  0
  2  5  1  0  0  0  0
  2 16  1  6  0  0  0
  3  4  1  0  0  0  0
  3  7  1  0  0  0  0
  3 17  1  1  0  0  0
  4 18  1  0  0  0  0
  4 19  1  0  0  0  0
  5  9  1  0  0  0  0
  5 20  1  0  0  0  0
  5 21  1  0  0  0  0
  6 10  1  0  0  0  0
  6 22  1  0  0  0  0
  6 23  1  0  0  0  0
  7  9  2  0  0  0  0
  7 11  1  0  0  0  0
  8 24  1  0  0  0  0
  8 25  1  0  0  0  0
  8 26  1  0  0  0  0
  9 27  1  0  0  0  0
 10 12  1  0  0  0  0
 10 28  1  0  0  0  0
 10 29  1  0  0  0  0
 11 30  1  0  0  0  0
 11 31  1  0  0  0  0
 11 32  1  0  0  0  0
 12 13  2  0  0  0  0
 12 33  1  0  0  0  0
 13 14  1  0  0  0  0
 13 15  1  0  0  0  0
 14 37  1  0  0  0  0
 14 38  1  0  0  0  0
 14 39  1  0  0  0  0
 15 34  1  0  0  0  0
 15 35  1  0  0  0  0
 15 36  1  0  0  0  0
M  END
> <PUBCHEM_COMPOUND_CID>
6429302

> <PUBCHEM_COMPOUND_CANONICALIZED>
1

> <PUBCHEM_CACTVS_COMPLEXITY>
304

> <PUBCHEM_CACTVS_HBOND_ACCEPTOR>
0

> <PUBCHEM_CACTVS_HBOND_DONOR>
0

> <PUBCHEM_CACTVS_ROTATABLE_BOND>
3

> <PUBCHEM_CACTVS_SUBSKEYS>
AAADceBwAAAAAAAAAAAAAAAAAABgAAAAAAAgQAAAAAAAAAAAAAAAGAAAAAAADwCAAAACAAAAAACAAiBCAAAAAAAgAAAACAAAAAgAAAIAAQAAAAAAgAAIAAMAgMAPgAAAAAAAAAAAAAAAAAAAAAAAAAAAAA==

> <PUBCHEM_IUPAC_OPENEYE_NAME>
(1~{S},5~{S},6~{R})-2,6-dimethyl-6-(4-methylpent-3-enyl)bicyclo[3.1.1]hept-2-ene

> <PUBCHEM_IUPAC_CAS_NAME>
(1~{S},5~{S},6~{R})-2,6-dimethyl-6-(4-methylpent-3-enyl)bicyclo[3.1.1]hept-2-ene

> <PUBCHEM_IUPAC_NAME>
(1~{S},5~{S},6~{R})-2,6-dimethyl-6-(4-methylpent-3-enyl)bicyclo[3.1.1]hept-2-ene

> <PUBCHEM_IUPAC_SYSTEMATIC_NAME>
(1~{S},5~{S},6~{R})-2,6-dimethyl-6-(4-methylpent-3-enyl)bicyclo[3.1.1]hept-2-ene

> <PUBCHEM_IUPAC_TRADITIONAL_NAME>
(1~{S},5~{S},6~{R})-2,6-dimethyl-6-(4-methylpent-3-enyl)bicyclo[3.1.1]hept-2-ene

> <PUBCHEM_IUPAC_INCHI>
InChI=1S/C15H24/c1-11(2)6-5-9-15(4)13-8-7-12(3)14(15)10-13/h6-7,13-14H,5,8-10H2,1-4H3/t13-,14-,15+/m0/s1

> <PUBCHEM_IUPAC_INCHIKEY>
YMBFCQPIMVLNIU-SOUVJXGZSA-N

> <PUBCHEM_XLOGP3_AA>
4.8

> <PUBCHEM_EXACT_MASS>
204.188

> <PUBCHEM_MOLECULAR_FORMULA>
C15H24

> <PUBCHEM_MOLECULAR_WEIGHT>
204.357

> <PUBCHEM_OPENEYE_CAN_SMILES>
CC1=CCC2CC1C2(C)CCC=C(C)C

> <PUBCHEM_OPENEYE_ISO_SMILES>
CC1=CC[C@H]2C[C@@H]1[C@]2(C)CCC=C(C)C

> <PUBCHEM_CACTVS_TPSA>
0

> <PUBCHEM_MONOISOTOPIC_WEIGHT>
204.188

> <PUBCHEM_TOTAL_CHARGE>
0

> <PUBCHEM_HEAVY_ATOM_COUNT>
15

> <PUBCHEM_ATOM_DEF_STEREO_COUNT>
3

> <PUBCHEM_ATOM_UDEF_STEREO_COUNT>
0

> <PUBCHEM_BOND_DEF_STEREO_COUNT>
0

> <PUBCHEM_BOND_UDEF_STEREO_COUNT>
0

> <PUBCHEM_ISOTOPIC_ATOM_COUNT>
0

> <PUBCHEM_COMPONENT_COUNT>
1

> <PUBCHEM_CACTVS_TAUTO_COUNT>
-1

> <PUBCHEM_COORDINATE_TYPE>
1
5
255

> <PUBCHEM_BONDANNOTATIONS>
1  8  6
2  16  6
3  17  5

$$$$
5281515
  -OEChem-02201912152D

 39 40  0     1  0  0  0  0  0999 V2000
    2.9665    1.2302    0.0000 C   0  0  0  0  0  0  0  0  0  0  0  0
    2.7095    0.2552    0.0000 C   0  0  1  0  0  0  0  0  0  0  0  0
    3.6754   -0.0036    0.0000 C   0  0  2  0  0  0  0  0  0  0  0  0
    3.9404    0.9693    0.0000 C   0  0  0  0  0  0  0  0  0  0  0  0
    2.4507   -0.7107    0.0000 C   0  0  0  0  0  0  0  0  0  0  0  0
    3.2233    2.1967    0.0000 C   0  0  0  0  0  0  0  0  0  0  0  0
    2.0000    1.4871    0.0000 C   0  0  0  0  0  0  0  0  0  0  0  0
    4.5414    0.4964    0.0000 C   0  0  0  0  0  0  0  0  0  0  0  0
    2.9507   -1.5767    0.0000 C   0  0  0  0  0  0  0  0  0  0  0  0
    5.4075   -0.0036    0.0000 C   0  0  0  0  0  0  0  0  0  0  0  0
    3.8167   -1.0767    0.0000 C   0  0  0  0  0  0  0  0  0  0  0  0
    5.5488   -1.0767    0.0000 C   0  0  0  0  0  0  0  0  0  0  0  0
    4.5414    1.4964    0.0000 C   0  0  0  0  0  0  0  0  0  0  0  0
    4.6827   -1.5767    0.0000 C   0  0  0  0  0  0  0  0  0  0  0  0
    3.8167   -0.0767    0.0000 C   0  0  0  0  0  0  0  0  0  0  0  0
    1.8880    0.4736    0.0000 H   0  0  0  0  0  0  0  0  0  0  0  0
    3.7864   -0.8463    0.0000 H   0  0  0  0  0  0  0  0  0  0  0  0
    4.5388    0.8072    0.0000 H   0  0  0  0  0  0  0  0  0  0  0  0
    4.1017    1.5679    0.0000 H   0  0  0  0  0  0  0  0  0  0  0  0
    1.9137   -0.4007    0.0000 H   0  0  0  0  0  0  0  0  0  0  0  0
    2.0123   -1.1491    0.0000 H   0  0  0  0  0  0  0  0  0  0  0  0
    3.8225    2.0375    0.0000 H   0  0  0  0  0  0  0  0  0  0  0  0
    3.3825    2.7959    0.0000 H   0  0  0  0  0  0  0  0  0  0  0  0
    2.1592    2.0863    0.0000 H   0  0  0  0  0  0  0  0  0  0  0  0
    2.6241    2.3559    0.0000 H   0  0  0  0  0  0  0  0  0  0  0  0
    1.4008    1.6463    0.0000 H   0  0  0  0  0  0  0  0  0  0  0  0
    1.8408    0.8879    0.0000 H   0  0  0  0  0  0  0  0  0  0  0  0
    2.4137   -1.8867    0.0000 H   0  0  0  0  0  0  0  0  0  0  0  0
    3.2607   -2.1136    0.0000 H   0  0  0  0  0  0  0  0  0  0  0  0
    6.0251   -0.0576    0.0000 H   0  0  0  0  0  0  0  0  0  0  0  0
    5.5939    0.5877    0.0000 H   0  0  0  0  0  0  0  0  0  0  0  0
    5.7860   -1.6495    0.0000 H   0  0  0  0  0  0  0  0  0  0  0  0
    6.1476   -0.9162    0.0000 H   0  0  0  0  0  0  0  0  0  0  0  0
    5.0784    1.8064    0.0000 H   0  0  0  0  0  0  0  0  0  0  0  0
    4.0045    1.8064    0.0000 H   0  0  0  0  0  0  0  0  0  0  0  0
    4.6827   -2.1967    0.0000 H   0  0  0  0  0  0  0  0  0  0  0  0
    4.4367   -0.0767    0.0000 H   0  0  0  0  0  0  0  0  0  0  0  0
    3.8167    0.5433    0.0000 H   0  0  0  0  0  0  0  0  0  0  0  0
    3.1967   -0.0767    0.0000 H   0  0  0  0  0  0  0  0  0  0  0  0
  1  2  1  0  0  0  0
  1  4  1  0  0  0  0
  1  6  1  0  0  0  0
  1  7  1  0  0  0  0
  2  3  1  0  0  0  0
  2  5  1  0  0  0  0
  2 16  1  6  0  0  0
  3  4  1  0  0  0  0
  3  8  1  0  0  0  0
  3 17  1  1  0  0  0
  4 18  1  0  0  0  0
  4 19  1  0  0  0  0
  5  9  1  0  0  0  0
  5 20  1  0  0  0  0
  5 21  1  0  0  0  0
  6 22  1  0  0  0  0
  6 23  1  0  0  0  0
  6 25  1  0  0  0  0
  7 24  1  0  0  0  0
  7 26  1  0  0  0  0
  7 27  1  0  0  0  0
  8 10  1  0  0  0  0
  8 13  2  0  0  0  0
  9 11  1  0  0  0  0
  9 28  1  0  0  0  0
  9 29  1  0  0  0  0
 10 12  1  0  0  0  0
 10 30  1  0  0  0  0
 10 31  1  0  0  0  0
 11 14  2  0  0  0  0
 11 15  1  0  0  0  0
 12 14  1  0  0  0  0
 12 32  1  0  0  0  0
 12 33  1  0  0  0  0
 13 34  1  0  0  0  0
 13 35  1  0  0  0  0
 14 36  1  0  0  0  0
 15 37  1  0  0  0  0
 15 38  1  0  0  0  0
 15 39  1  0  0  0  0
M  END
> <PUBCHEM_COMPOUND_CID>
5281515

> <PUBCHEM_COMPOUND_CANONICALIZED>
1

> <PUBCHEM_CACTVS_COMPLEXITY>
293

> <PUBCHEM_CACTVS_HBOND_ACCEPTOR>
0

> <PUBCHEM_CACTVS_HBOND_DONOR>
0

> <PUBCHEM_CACTVS_ROTATABLE_BOND>
0

> <PUBCHEM_CACTVS_SUBSKEYS>
AAADceBwAAAAAAAAAAAAAAAAAABgAAAAAAAAAAAAAAAAAEAAAAAAGAAAAAAADwCAAAACAAAAAACAAiBCAAAAAAAgAAAACAAAAAgAAAIAAQAAAAAAgAAIAAMAgMAPgAAAAAAAAAAAAAAAAAAAAAAAAAAAAA==

> <PUBCHEM_IUPAC_OPENEYE_NAME>
(1~{R},4~{E},9~{S})-4,11,11-trimethyl-8-methylene-bicyclo[7.2.0]undec-4-ene

> <PUBCHEM_IUPAC_CAS_NAME>
(1~{R},4~{E},9~{S})-4,11,11-trimethyl-8-methylenebicyclo[7.2.0]undec-4-ene

> <PUBCHEM_IUPAC_NAME>
(1~{R},4~{E},9~{S})-4,11,11-trimethyl-8-methylidenebicyclo[7.2.0]undec-4-ene

> <PUBCHEM_IUPAC_SYSTEMATIC_NAME>
(1~{R},4~{E},9~{S})-4,11,11-trimethyl-8-methylidene-bicyclo[7.2.0]undec-4-ene

> <PUBCHEM_IUPAC_TRADITIONAL_NAME>
(1~{R},4~{E},9~{S})-4,11,11-trimethyl-8-methylene-bicyclo[7.2.0]undec-4-ene

> <PUBCHEM_IUPAC_INCHI>
InChI=1S/C15H24/c1-11-6-5-7-12(2)13-10-15(3,4)14(13)9-8-11/h6,13-14H,2,5,7-10H2,1,3-4H3/b11-6+/t13-,14-/m1/s1

> <PUBCHEM_IUPAC_INCHIKEY>
NPNUFJAVOOONJE-GFUGXAQUSA-N

> <PUBCHEM_XLOGP3_AA>
4.4

> <PUBCHEM_EXACT_MASS>
204.188

> <PUBCHEM_MOLECULAR_FORMULA>
C15H24

> <PUBCHEM_MOLECULAR_WEIGHT>
204.357

> <PUBCHEM_OPENEYE_CAN_SMILES>
CC1=CCCC(=C)C2CC(C2CC1)(C)C

> <PUBCHEM_OPENEYE_ISO_SMILES>
C/C/1=C\CCC(=C)[C@H]2CC([C@@H]2CC1)(C)C

> <PUBCHEM_CACTVS_TPSA>
0

> <PUBCHEM_MONOISOTOPIC_WEIGHT>
204.188

> <PUBCHEM_TOTAL_CHARGE>
0

> <PUBCHEM_HEAVY_ATOM_COUNT>
15

> <PUBCHEM_ATOM_DEF_STEREO_COUNT>
2

> <PUBCHEM_ATOM_UDEF_STEREO_COUNT>
0

> <PUBCHEM_BOND_DEF_STEREO_COUNT>
1

> <PUBCHEM_BOND_UDEF_STEREO_COUNT>
0

> <PUBCHEM_ISOTOPIC_ATOM_COUNT>
0

> <PUBCHEM_COMPONENT_COUNT>
1

> <PUBCHEM_CACTVS_TAUTO_COUNT>
-1

> <PUBCHEM_COORDINATE_TYPE>
1
5
255

> <PUBCHEM_BONDANNOTATIONS>
2  16  6
3  17  5

$$$$
5281517
  -OEChem-02201912152D

 39 38  0     0  0  0  0  0  0999 V2000
    5.4641    0.4400    0.0000 C   0  0  0  0  0  0  0  0  0  0  0  0
    6.3301   -0.0600    0.0000 C   0  0  0  0  0  0  0  0  0  0  0  0
    4.5981   -0.0600    0.0000 C   0  0  0  0  0  0  0  0  0  0  0  0
    8.0622   -0.0600    0.0000 C   0  0  0  0  0  0  0  0  0  0  0  0
    7.1962    0.4400    0.0000 C   0  0  0  0  0  0  0  0  0  0  0  0
    8.9282    0.4400    0.0000 C   0  0  0  0  0  0  0  0  0  0  0  0
    3.7320    0.4400    0.0000 C   0  0  0  0  0  0  0  0  0  0  0  0
    6.3301   -1.0600    0.0000 C   0  0  0  0  0  0  0  0  0  0  0  0
    2.8660   -0.0600    0.0000 C   0  0  0  0  0  0  0  0  0  0  0  0
    9.7942   -0.0600    0.0000 C   0  0  0  0  0  0  0  0  0  0  0  0
    2.0000    0.4400    0.0000 C   0  0  0  0  0  0  0  0  0  0  0  0
    2.8660   -1.0600    0.0000 C   0  0  0  0  0  0  0  0  0  0  0  0
   10.6603    0.4400    0.0000 C   0  0  0  0  0  0  0  0  0  0  0  0
    9.7942   -1.0600    0.0000 C   0  0  0  0  0  0  0  0  0  0  0  0
   11.5263   -0.0600    0.0000 C   0  0  0  0  0  0  0  0  0  0  0  0
    5.8626    0.9149    0.0000 H   0  0  0  0  0  0  0  0  0  0  0  0
    5.0656    0.9149    0.0000 H   0  0  0  0  0  0  0  0  0  0  0  0
    4.1996   -0.5349    0.0000 H   0  0  0  0  0  0  0  0  0  0  0  0
    4.9966   -0.5349    0.0000 H   0  0  0  0  0  0  0  0  0  0  0  0
    7.6636   -0.5349    0.0000 H   0  0  0  0  0  0  0  0  0  0  0  0
    8.4607   -0.5349    0.0000 H   0  0  0  0  0  0  0  0  0  0  0  0
    7.1962    1.0600    0.0000 H   0  0  0  0  0  0  0  0  0  0  0  0
    9.3267    0.9149    0.0000 H   0  0  0  0  0  0  0  0  0  0  0  0
    8.5297    0.9149    0.0000 H   0  0  0  0  0  0  0  0  0  0  0  0
    3.7320    1.0600    0.0000 H   0  0  0  0  0  0  0  0  0  0  0  0
    5.7101   -1.0600    0.0000 H   0  0  0  0  0  0  0  0  0  0  0  0
    6.3301   -1.6800    0.0000 H   0  0  0  0  0  0  0  0  0  0  0  0
    6.9501   -1.0600    0.0000 H   0  0  0  0  0  0  0  0  0  0  0  0
    2.3100    0.9769    0.0000 H   0  0  0  0  0  0  0  0  0  0  0  0
    1.4631    0.7500    0.0000 H   0  0  0  0  0  0  0  0  0  0  0  0
    2.2460   -1.0600    0.0000 H   0  0  0  0  0  0  0  0  0  0  0  0
    2.8660   -1.6800    0.0000 H   0  0  0  0  0  0  0  0  0  0  0  0
    3.4860   -1.0600    0.0000 H   0  0  0  0  0  0  0  0  0  0  0  0
    1.6900   -0.0969    0.0000 H   0  0  0  0  0  0  0  0  0  0  0  0
   10.6603    1.0600    0.0000 H   0  0  0  0  0  0  0  0  0  0  0  0
    9.2573   -1.3700    0.0000 H   0  0  0  0  0  0  0  0  0  0  0  0
   10.3312   -1.3700    0.0000 H   0  0  0  0  0  0  0  0  0  0  0  0
   11.5263   -0.6800    0.0000 H   0  0  0  0  0  0  0  0  0  0  0  0
   12.0632    0.2500    0.0000 H   0  0  0  0  0  0  0  0  0  0  0  0
  1  2  1  0  0  0  0
  1  3  1  0  0  0  0
  1 16  1  0  0  0  0
  1 17  1  0  0  0  0
  2  5  2  0  0  0  0
  2  8  1  0  0  0  0
  3  7  1  0  0  0  0
  3 18  1  0  0  0  0
  3 19  1  0  0  0  0
  4  5  1  0  0  0  0
  4  6  1  0  0  0  0
  4 20  1  0  0  0  0
  4 21  1  0  0  0  0
  5 22  1  0  0  0  0
  6 10  1  0  0  0  0
  6 23  1  0  0  0  0
  6 24  1  0  0  0  0
  7  9  2  0  0  0  0
  7 25  1  0  0  0  0
  8 26  1  0  0  0  0
  8 27  1  0  0  0  0
  8 28  1  0  0  0  0
  9 11  1  0  0  0  0
  9 12  1  0  0  0  0
 10 13  1  0  0  0  0
 10 14  2  0  0  0  0
 11 29  1  0  0  0  0
 11 30  1  0  0  0  0
 11 34  1  0  0  0  0
 12 31  1  0  0  0  0
 12 32  1  0  0  0  0
 12 33  1  0  0  0  0
 13 15  2  0  0  0  0
 13 35  1  0  0  0  0
 14 36  1  0  0  0  0
 14 37  1  0  0  0  0
 15 38  1  0  0  0  0
 15 39  1  0  0  0  0
M  END
> <PUBCHEM_COMPOUND_CID>
5281517

> <PUBCHEM_COMPOUND_CANONICALIZED>
1

> <PUBCHEM_CACTVS_COMPLEXITY>
260

> <PUBCHEM_CACTVS_HBOND_ACCEPTOR>
0

> <PUBCHEM_CACTVS_HBOND_DONOR>
0

> <PUBCHEM_CACTVS_ROTATABLE_BOND>
7

> <PUBCHEM_CACTVS_SUBSKEYS>
AAADceBwAAAAAAAAAAAAAAAAAAAAAAAAAAAAAAAAAAAAAAAAAAAAGAAAAAAADACAAAACAAAAAACAAiBCAAAAAAAgAAAICAAAAAgIAAIAAQAAAAAAgAAIAAIAAAAAAAAAAAAAAAAAAAAAAAAAAAAAAAAAAA==

> <PUBCHEM_IUPAC_OPENEYE_NAME>
(6~{E})-7,11-dimethyl-3-methylene-dodeca-1,6,10-triene

> <PUBCHEM_IUPAC_CAS_NAME>
(6~{E})-7,11-dimethyl-3-methylenedodeca-1,6,10-triene

> <PUBCHEM_IUPAC_NAME>
(6~{E})-7,11-dimethyl-3-methylidenedodeca-1,6,10-triene

> <PUBCHEM_IUPAC_SYSTEMATIC_NAME>
(6~{E})-7,11-dimethyl-3-methylidene-dodeca-1,6,10-triene

> <PUBCHEM_IUPAC_TRADITIONAL_NAME>
(6~{E})-7,11-dimethyl-3-methylene-dodeca-1,6,10-triene

> <PUBCHEM_IUPAC_INCHI>
InChI=1S/C15H24/c1-6-14(4)10-8-12-15(5)11-7-9-13(2)3/h6,9,12H,1,4,7-8,10-11H2,2-3,5H3/b15-12+

> <PUBCHEM_IUPAC_INCHIKEY>
JSNRRGGBADWTMC-NTCAYCPXSA-N

> <PUBCHEM_XLOGP3_AA>
6.2

> <PUBCHEM_EXACT_MASS>
204.188

> <PUBCHEM_MOLECULAR_FORMULA>
C15H24

> <PUBCHEM_MOLECULAR_WEIGHT>
204.357

> <PUBCHEM_OPENEYE_CAN_SMILES>
CC(=CCCC(=CCCC(=C)C=C)C)C

> <PUBCHEM_OPENEYE_ISO_SMILES>
CC(=CCC/C(=C/CCC(=C)C=C)/C)C

> <PUBCHEM_CACTVS_TPSA>
0

> <PUBCHEM_MONOISOTOPIC_WEIGHT>
204.188

> <PUBCHEM_TOTAL_CHARGE>
0

> <PUBCHEM_HEAVY_ATOM_COUNT>
15

> <PUBCHEM_ATOM_DEF_STEREO_COUNT>
0

> <PUBCHEM_ATOM_UDEF_STEREO_COUNT>
0

> <PUBCHEM_BOND_DEF_STEREO_COUNT>
1

> <PUBCHEM_BOND_UDEF_STEREO_COUNT>
0

> <PUBCHEM_ISOTOPIC_ATOM_COUNT>
0

> <PUBCHEM_COMPONENT_COUNT>
1

> <PUBCHEM_CACTVS_TAUTO_COUNT>
-1

> <PUBCHEM_COORDINATE_TYPE>
1
5
255

$$$$
5281519
  -OEChem-02201912152D

 39 39  0     0  0  0  0  0  0999 V2000
    5.4641    0.6900    0.0000 C   0  0  0  0  0  0  0  0  0  0  0  0
    5.4641   -0.3100    0.0000 C   0  0  0  0  0  0  0  0  0  0  0  0
    4.5981    1.1900    0.0000 C   0  0  0  0  0  0  0  0  0  0  0  0
    4.5981   -0.8100    0.0000 C   0  0  0  0  0  0  0  0  0  0  0  0
    3.7320    0.6900    0.0000 C   0  0  0  0  0  0  0  0  0  0  0  0
    2.0000   -0.3100    0.0000 C   0  0  0  0  0  0  0  0  0  0  0  0
    2.0000    0.6900    0.0000 C   0  0  0  0  0  0  0  0  0  0  0  0
    2.8660   -0.8100    0.0000 C   0  0  0  0  0  0  0  0  0  0  0  0
    6.3301   -0.8100    0.0000 C   0  0  0  0  0  0  0  0  0  0  0  0
    3.7320   -0.3100    0.0000 C   0  0  0  0  0  0  0  0  0  0  0  0
    2.8660    1.1900    0.0000 C   0  0  0  0  0  0  0  0  0  0  0  0
    3.4630   -0.8365    0.0000 C   0  0  0  0  0  0  0  0  0  0  0  0
    2.8660   -1.8100    0.0000 C   0  0  0  0  0  0  0  0  0  0  0  0
    7.1962   -0.3100    0.0000 C   0  0  0  0  0  0  0  0  0  0  0  0
    6.3301   -1.8100    0.0000 C   0  0  0  0  0  0  0  0  0  0  0  0
    6.0747    0.5823    0.0000 H   0  0  0  0  0  0  0  0  0  0  0  0
    5.6762    1.2726    0.0000 H   0  0  0  0  0  0  0  0  0  0  0  0
    4.9966    1.6650    0.0000 H   0  0  0  0  0  0  0  0  0  0  0  0
    4.1996    1.6650    0.0000 H   0  0  0  0  0  0  0  0  0  0  0  0
    4.1996   -1.2850    0.0000 H   0  0  0  0  0  0  0  0  0  0  0  0
    4.9966   -1.2850    0.0000 H   0  0  0  0  0  0  0  0  0  0  0  0
    1.3894   -0.2023    0.0000 H   0  0  0  0  0  0  0  0  0  0  0  0
    1.7880   -0.8926    0.0000 H   0  0  0  0  0  0  0  0  0  0  0  0
    1.7880    1.2726    0.0000 H   0  0  0  0  0  0  0  0  0  0  0  0
    1.3894    0.5823    0.0000 H   0  0  0  0  0  0  0  0  0  0  0  0
    4.1306    0.1649    0.0000 H   0  0  0  0  0  0  0  0  0  0  0  0
    2.8660    1.8100    0.0000 H   0  0  0  0  0  0  0  0  0  0  0  0
    2.8524   -0.7289    0.0000 H   0  0  0  0  0  0  0  0  0  0  0  0
    3.3554   -1.4471    0.0000 H   0  0  0  0  0  0  0  0  0  0  0  0
    4.0736   -0.9441    0.0000 H   0  0  0  0  0  0  0  0  0  0  0  0
    2.2460   -1.8100    0.0000 H   0  0  0  0  0  0  0  0  0  0  0  0
    2.8660   -2.4300    0.0000 H   0  0  0  0  0  0  0  0  0  0  0  0
    3.4860   -1.8100    0.0000 H   0  0  0  0  0  0  0  0  0  0  0  0
    7.5062   -0.8469    0.0000 H   0  0  0  0  0  0  0  0  0  0  0  0
    7.7331    0.0000    0.0000 H   0  0  0  0  0  0  0  0  0  0  0  0
    6.8862    0.2269    0.0000 H   0  0  0  0  0  0  0  0  0  0  0  0
    5.7101   -1.8100    0.0000 H   0  0  0  0  0  0  0  0  0  0  0  0
    6.3301   -2.4300    0.0000 H   0  0  0  0  0  0  0  0  0  0  0  0
    6.9501   -1.8100    0.0000 H   0  0  0  0  0  0  0  0  0  0  0  0
  1  2  1  0  0  0  0
  1  3  1  0  0  0  0
  1 16  1  0  0  0  0
  1 17  1  0  0  0  0
  2  4  1  0  0  0  0
  2  9  2  0  0  0  0
  3  5  1  0  0  0  0
  3 18  1  0  0  0  0
  3 19  1  0  0  0  0
  4 10  1  0  0  0  0
  4 20  1  0  0  0  0
  4 21  1  0  0  0  0
  5 11  2  0  0  0  0
  5 12  1  0  0  0  0
  6  7  1  0  0  0  0
  6  8  1  0  0  0  0
  6 22  1  0  0  0  0
  6 23  1  0  0  0  0
  7 11  1  0  0  0  0
  7 24  1  0  0  0  0
  7 25  1  0  0  0  0
  8 10  2  0  0  0  0
  8 13  1  0  0  0  0
  9 14  1  0  0  0  0
  9 15  1  0  0  0  0
 10 26  1  0  0  0  0
 11 27  1  0  0  0  0
 12 28  1  0  0  0  0
 12 29  1  0  0  0  0
 12 30  1  0  0  0  0
 13 31  1  0  0  0  0
 13 32  1  0  0  0  0
 13 33  1  0  0  0  0
 14 34  1  0  0  0  0
 14 35  1  0  0  0  0
 14 36  1  0  0  0  0
 15 37  1  0  0  0  0
 15 38  1  0  0  0  0
 15 39  1  0  0  0  0
M  END
> <PUBCHEM_COMPOUND_CID>
5281519

> <PUBCHEM_COMPOUND_CANONICALIZED>
1

> <PUBCHEM_CACTVS_COMPLEXITY>
296

> <PUBCHEM_CACTVS_HBOND_ACCEPTOR>
0

> <PUBCHEM_CACTVS_HBOND_DONOR>
0

> <PUBCHEM_CACTVS_ROTATABLE_BOND>
0

> <PUBCHEM_CACTVS_SUBSKEYS>
AAADceBwAAAAAAAAAAAAAAAAAAAAAAAAAAAAAAAAAAAAAACAAAAAGAAAAAAADACAAAACAAAAAACAAiBCAAAAAAAgAAAACAAAAAgAAAIAAQAAAAAAgAAIAAMAgAAAAAAAAAAAAAAAAAAAAAAAAAAAAAAAAA==

> <PUBCHEM_IUPAC_OPENEYE_NAME>
(1~{E},5~{E})-8-isopropylidene-1,5-dimethyl-cyclodeca-1,5-diene

> <PUBCHEM_IUPAC_CAS_NAME>
(1~{E},5~{E})-1,5-dimethyl-8-propan-2-ylidenecyclodeca-1,5-diene

> <PUBCHEM_IUPAC_NAME>
(1~{E},5~{E})-1,5-dimethyl-8-propan-2-ylidenecyclodeca-1,5-diene

> <PUBCHEM_IUPAC_SYSTEMATIC_NAME>
(1~{E},5~{E})-1,5-dimethyl-8-propan-2-ylidene-cyclodeca-1,5-diene

> <PUBCHEM_IUPAC_TRADITIONAL_NAME>
(1~{E},5~{E})-8-isopropylidene-1,5-dimethyl-cyclodeca-1,5-diene

> <PUBCHEM_IUPAC_INCHI>
InChI=1S/C15H24/c1-12(2)15-10-8-13(3)6-5-7-14(4)9-11-15/h6,9H,5,7-8,10-11H2,1-4H3/b13-6+,14-9+

> <PUBCHEM_IUPAC_INCHIKEY>
GXEGJTGWYVZSNR-SJRHNVSNSA-N

> <PUBCHEM_XLOGP3_AA>
4.1

> <PUBCHEM_EXACT_MASS>
204.188

> <PUBCHEM_MOLECULAR_FORMULA>
C15H24

> <PUBCHEM_MOLECULAR_WEIGHT>
204.357

> <PUBCHEM_OPENEYE_CAN_SMILES>
CC1=CCCC(=CCC(=C(C)C)CC1)C

> <PUBCHEM_OPENEYE_ISO_SMILES>
C/C/1=C\CC/C(=C/CC(=C(C)C)CC1)/C

> <PUBCHEM_CACTVS_TPSA>
0

> <PUBCHEM_MONOISOTOPIC_WEIGHT>
204.188

> <PUBCHEM_TOTAL_CHARGE>
0

> <PUBCHEM_HEAVY_ATOM_COUNT>
15

> <PUBCHEM_ATOM_DEF_STEREO_COUNT>
0

> <PUBCHEM_ATOM_UDEF_STEREO_COUNT>
0

> <PUBCHEM_BOND_DEF_STEREO_COUNT>
2

> <PUBCHEM_BOND_UDEF_STEREO_COUNT>
0

> <PUBCHEM_ISOTOPIC_ATOM_COUNT>
0

> <PUBCHEM_COMPONENT_COUNT>
1

> <PUBCHEM_CACTVS_TAUTO_COUNT>
1

> <PUBCHEM_COORDINATE_TYPE>
1
5
255

$$$$
5373727
  -OEChem-02201912152D

 39 39  0     1  0  0  0  0  0999 V2000
    5.1350    0.4400    0.0000 C   0  0  3  0  0  0  0  0  0  0  0  0
    6.0010   -0.0600    0.0000 C   0  0  0  0  0  0  0  0  0  0  0  0
    4.2690   -0.0600    0.0000 C   0  0  0  0  0  0  0  0  0  0  0  0
    4.2690   -1.0600    0.0000 C   0  0  0  0  0  0  0  0  0  0  0  0
    5.1350    1.4400    0.0000 C   0  0  0  0  0  0  0  0  0  0  0  0
    6.8671    0.4400    0.0000 C   0  0  0  0  0  0  0  0  0  0  0  0
    6.0010   -1.0600    0.0000 C   0  0  0  0  0  0  0  0  0  0  0  0
    3.4030   -1.5600    0.0000 C   0  0  0  0  0  0  0  0  0  0  0  0
    4.2690    1.9400    0.0000 C   0  0  0  0  0  0  0  0  0  0  0  0
    2.5369   -0.0600    0.0000 C   0  0  0  0  0  0  0  0  0  0  0  0
    2.5369   -1.0600    0.0000 C   0  0  0  0  0  0  0  0  0  0  0  0
    3.4030    0.4400    0.0000 C   0  0  0  0  0  0  0  0  0  0  0  0
    3.4030    1.4400    0.0000 C   0  0  0  0  0  0  0  0  0  0  0  0
    3.4030   -2.5600    0.0000 C   0  0  0  0  0  0  0  0  0  0  0  0
    2.5369    1.9400    0.0000 C   0  0  0  0  0  0  0  0  0  0  0  0
    5.1350   -0.4100    0.0000 H   0  0  0  0  0  0  0  0  0  0  0  0
    6.5380   -0.3700    0.0000 H   0  0  0  0  0  0  0  0  0  0  0  0
    4.0569    0.5226    0.0000 H   0  0  0  0  0  0  0  0  0  0  0  0
    3.6584   -0.1677    0.0000 H   0  0  0  0  0  0  0  0  0  0  0  0
    4.4810   -1.6426    0.0000 H   0  0  0  0  0  0  0  0  0  0  0  0
    4.8796   -0.9523    0.0000 H   0  0  0  0  0  0  0  0  0  0  0  0
    5.6720    1.7500    0.0000 H   0  0  0  0  0  0  0  0  0  0  0  0
    7.1771   -0.0969    0.0000 H   0  0  0  0  0  0  0  0  0  0  0  0
    5.3810   -1.0600    0.0000 H   0  0  0  0  0  0  0  0  0  0  0  0
    6.0010   -1.6800    0.0000 H   0  0  0  0  0  0  0  0  0  0  0  0
    6.6210   -1.0600    0.0000 H   0  0  0  0  0  0  0  0  0  0  0  0
    7.4040    0.7500    0.0000 H   0  0  0  0  0  0  0  0  0  0  0  0
    6.5571    0.9769    0.0000 H   0  0  0  0  0  0  0  0  0  0  0  0
    4.2690    2.5600    0.0000 H   0  0  0  0  0  0  0  0  0  0  0  0
    2.3249    0.5226    0.0000 H   0  0  0  0  0  0  0  0  0  0  0  0
    1.9264   -0.1677    0.0000 H   0  0  0  0  0  0  0  0  0  0  0  0
    2.0000   -1.3700    0.0000 H   0  0  0  0  0  0  0  0  0  0  0  0
    3.6150   -0.1426    0.0000 H   0  0  0  0  0  0  0  0  0  0  0  0
    4.0135    0.5477    0.0000 H   0  0  0  0  0  0  0  0  0  0  0  0
    2.7830   -2.5600    0.0000 H   0  0  0  0  0  0  0  0  0  0  0  0
    3.4030   -3.1800    0.0000 H   0  0  0  0  0  0  0  0  0  0  0  0
    4.0230   -2.5600    0.0000 H   0  0  0  0  0  0  0  0  0  0  0  0
    2.5369    2.5600    0.0000 H   0  0  0  0  0  0  0  0  0  0  0  0
    2.0000    1.6300    0.0000 H   0  0  0  0  0  0  0  0  0  0  0  0
  1  2  1  0  0  0  0
  1  3  1  0  0  0  0
  1  5  1  0  0  0  0
  1 16  1  0  0  0  0
  2  6  1  0  0  0  0
  2  7  1  0  0  0  0
  2 17  1  0  0  0  0
  3  4  1  0  0  0  0
  3 18  1  0  0  0  0
  3 19  1  0  0  0  0
  4  8  1  0  0  0  0
  4 20  1  0  0  0  0
  4 21  1  0  0  0  0
  5  9  2  0  0  0  0
  5 22  1  0  0  0  0
  6 23  1  0  0  0  0
  6 27  1  0  0  0  0
  6 28  1  0  0  0  0
  7 24  1  0  0  0  0
  7 25  1  0  0  0  0
  7 26  1  0  0  0  0
  8 11  2  0  0  0  0
  8 14  1  0  0  0  0
  9 13  1  0  0  0  0
  9 29  1  0  0  0  0
 10 11  1  0  0  0  0
 10 12  1  0  0  0  0
 10 30  1  0  0  0  0
 10 31  1  0  0  0  0
 11 32  1  0  0  0  0
 12 13  1  0  0  0  0
 12 33  1  0  0  0  0
 12 34  1  0  0  0  0
 13 15  2  0  0  0  0
 14 35  1  0  0  0  0
 14 36  1  0  0  0  0
 14 37  1  0  0  0  0
 15 38  1  0  0  0  0
 15 39  1  0  0  0  0
M  END
> <PUBCHEM_COMPOUND_CID>
5373727

> <PUBCHEM_COMPOUND_CANONICALIZED>
1

> <PUBCHEM_CACTVS_COMPLEXITY>
266

> <PUBCHEM_CACTVS_HBOND_ACCEPTOR>
0

> <PUBCHEM_CACTVS_HBOND_DONOR>
0

> <PUBCHEM_CACTVS_ROTATABLE_BOND>
1

> <PUBCHEM_CACTVS_SUBSKEYS>
AAADceBwAAAAAAAAAAAAAAAAAAAAAAAAAAAAAAAAAAAAAACAAAAAGAAAAAAADQCAAAACAAAAAACAAiBCAAAAAAAgAAAICAAAAAgIAAIAAQAAAAAAgAAIgAMAgEAOgAAAAAAAAAAAAAAAAAAAAAAAAAAAAA==

> <PUBCHEM_IUPAC_OPENEYE_NAME>
(1~{Z},6~{Z})-8-isopropyl-1-methyl-5-methylene-cyclodeca-1,6-diene

> <PUBCHEM_IUPAC_CAS_NAME>
(1~{Z},6~{Z})-1-methyl-5-methylene-8-propan-2-ylcyclodeca-1,6-diene

> <PUBCHEM_IUPAC_NAME>
(1~{Z},6~{Z})-1-methyl-5-methylidene-8-propan-2-ylcyclodeca-1,6-diene

> <PUBCHEM_IUPAC_SYSTEMATIC_NAME>
(1~{Z},6~{Z})-1-methyl-5-methylidene-8-propan-2-yl-cyclodeca-1,6-diene

> <PUBCHEM_IUPAC_TRADITIONAL_NAME>
(1~{Z},6~{Z})-8-isopropyl-1-methyl-5-methylene-cyclodeca-1,6-diene

> <PUBCHEM_IUPAC_INCHI>
InChI=1S/C15H24/c1-12(2)15-10-8-13(3)6-5-7-14(4)9-11-15/h7-8,10,12,15H,3,5-6,9,11H2,1-2,4H3/b10-8-,14-7-

> <PUBCHEM_IUPAC_INCHIKEY>
GAIBLDCXCZKKJE-BZXLUOIMSA-N

> <PUBCHEM_XLOGP3_AA>
4.7

> <PUBCHEM_EXACT_MASS>
204.188

> <PUBCHEM_MOLECULAR_FORMULA>
C15H24

> <PUBCHEM_MOLECULAR_WEIGHT>
204.357

> <PUBCHEM_OPENEYE_CAN_SMILES>
CC1=CCCC(=C)C=CC(CC1)C(C)C

> <PUBCHEM_OPENEYE_ISO_SMILES>
C/C/1=C/CCC(=C)/C=C\C(CC1)C(C)C

> <PUBCHEM_CACTVS_TPSA>
0

> <PUBCHEM_MONOISOTOPIC_WEIGHT>
204.188

> <PUBCHEM_TOTAL_CHARGE>
0

> <PUBCHEM_HEAVY_ATOM_COUNT>
15

> <PUBCHEM_ATOM_DEF_STEREO_COUNT>
0

> <PUBCHEM_ATOM_UDEF_STEREO_COUNT>
1

> <PUBCHEM_BOND_DEF_STEREO_COUNT>
2

> <PUBCHEM_BOND_UDEF_STEREO_COUNT>
0

> <PUBCHEM_ISOTOPIC_ATOM_COUNT>
0

> <PUBCHEM_COMPONENT_COUNT>
1

> <PUBCHEM_CACTVS_TAUTO_COUNT>
-1

> <PUBCHEM_COORDINATE_TYPE>
1
5
255

> <PUBCHEM_BONDANNOTATIONS>
1  16  3

$$$$
564934
  -OEChem-02201912152D

 39 42  0     1  0  0  0  0  0999 V2000
    4.3097   -0.3750    0.0000 C   0  0  3  0  0  0  0  0  0  0  0  0
    3.5007    0.2128    0.0000 C   0  0  3  0  0  0  0  0  0  0  0  0
    5.3076   -0.3733    0.0000 C   0  0  3  0  0  0  0  0  0  0  0  0
    5.1187    0.2128    0.0000 C   0  0  3  0  0  0  0  0  0  0  0  0
    4.8097    1.1638    0.0000 C   0  0  3  0  0  0  0  0  0  0  0  0
    3.8097    1.1638    0.0000 C   0  0  3  0  0  0  0  0  0  0  0  0
    5.6160    0.5759    0.0000 C   0  0  0  0  0  0  0  0  0  0  0  0
    2.9999    0.5566    0.0000 C   0  0  0  0  0  0  0  0  0  0  0  0
    4.5516   -1.3453    0.0000 C   0  0  0  0  0  0  0  0  0  0  0  0
    4.7914   -0.7450    0.0000 C   0  0  0  0  0  0  0  0  0  0  0  0
    6.0698   -0.0962    0.0000 C   0  0  0  0  0  0  0  0  0  0  0  0
    3.0076   -0.4555    0.0000 C   0  0  0  0  0  0  0  0  0  0  0  0
    3.8264   -1.0504    0.0000 C   0  0  0  0  0  0  0  0  0  0  0  0
    2.3852    1.3453    0.0000 C   0  0  0  0  0  0  0  0  0  0  0  0
    2.0000    0.5677    0.0000 C   0  0  0  0  0  0  0  0  0  0  0  0
    2.9110    0.0212    0.0000 H   0  0  0  0  0  0  0  0  0  0  0  0
    5.6725   -0.8745    0.0000 H   0  0  0  0  0  0  0  0  0  0  0  0
    5.0018    1.7533    0.0000 H   0  0  0  0  0  0  0  0  0  0  0  0
    3.6136    1.7520    0.0000 H   0  0  0  0  0  0  0  0  0  0  0  0
    6.1823    0.3234    0.0000 H   0  0  0  0  0  0  0  0  0  0  0  0
    5.9267    1.1124    0.0000 H   0  0  0  0  0  0  0  0  0  0  0  0
    3.9500   -1.4953    0.0000 H   0  0  0  0  0  0  0  0  0  0  0  0
    4.7016   -1.9469    0.0000 H   0  0  0  0  0  0  0  0  0  0  0  0
    5.1532   -1.1953    0.0000 H   0  0  0  0  0  0  0  0  0  0  0  0
    4.8500   -1.3622    0.0000 H   0  0  0  0  0  0  0  0  0  0  0  0
    5.4071   -0.8175    0.0000 H   0  0  0  0  0  0  0  0  0  0  0  0
    5.8782   -0.6859    0.0000 H   0  0  0  0  0  0  0  0  0  0  0  0
    6.6594   -0.2878    0.0000 H   0  0  0  0  0  0  0  0  0  0  0  0
    6.2613    0.4934    0.0000 H   0  0  0  0  0  0  0  0  0  0  0  0
    2.4005   -0.3297    0.0000 H   0  0  0  0  0  0  0  0  0  0  0  0
    2.7569   -1.0226    0.0000 H   0  0  0  0  0  0  0  0  0  0  0  0
    3.3646   -1.4641    0.0000 H   0  0  0  0  0  0  0  0  0  0  0  0
    4.1337   -1.5889    0.0000 H   0  0  0  0  0  0  0  0  0  0  0  0
    2.8741    1.7265    0.0000 H   0  0  0  0  0  0  0  0  0  0  0  0
    2.0040    1.8343    0.0000 H   0  0  0  0  0  0  0  0  0  0  0  0
    1.8962    0.9641    0.0000 H   0  0  0  0  0  0  0  0  0  0  0  0
    2.0069    1.1876    0.0000 H   0  0  0  0  0  0  0  0  0  0  0  0
    1.3800    0.5746    0.0000 H   0  0  0  0  0  0  0  0  0  0  0  0
    1.9931   -0.0523    0.0000 H   0  0  0  0  0  0  0  0  0  0  0  0
  1  2  1  0  0  0  0
  1  3  1  0  0  0  0
  1  4  1  0  0  0  0
  1  9  1  0  0  0  0
  2  3  1  0  0  0  0
  2  6  1  0  0  0  0
  2 16  1  0  0  0  0
  3  7  1  0  0  0  0
  3 17  1  0  0  0  0
  4  5  1  0  0  0  0
  4 10  1  0  0  0  0
  4 11  1  0  0  0  0
  5  6  1  0  0  0  0
  5  7  1  0  0  0  0
  5 18  1  0  0  0  0
  6  8  1  0  0  0  0
  6 19  1  0  0  0  0
  7 20  1  0  0  0  0
  7 21  1  0  0  0  0
  8 12  1  0  0  0  0
  8 14  1  0  0  0  0
  8 15  1  0  0  0  0
  9 22  1  0  0  0  0
  9 23  1  0  0  0  0
  9 24  1  0  0  0  0
 10 13  1  0  0  0  0
 10 25  1  0  0  0  0
 10 26  1  0  0  0  0
 11 27  1  0  0  0  0
 11 28  1  0  0  0  0
 11 29  1  0  0  0  0
 12 13  1  0  0  0  0
 12 30  1  0  0  0  0
 12 31  1  0  0  0  0
 13 32  1  0  0  0  0
 13 33  1  0  0  0  0
 14 34  1  0  0  0  0
 14 35  1  0  0  0  0
 14 36  1  0  0  0  0
 15 37  1  0  0  0  0
 15 38  1  0  0  0  0
 15 39  1  0  0  0  0
M  END
> <PUBCHEM_COMPOUND_CID>
564934

> <PUBCHEM_COMPOUND_CANONICALIZED>
1

> <PUBCHEM_CACTVS_COMPLEXITY>
342

> <PUBCHEM_CACTVS_HBOND_ACCEPTOR>
0

> <PUBCHEM_CACTVS_HBOND_DONOR>
0

> <PUBCHEM_CACTVS_ROTATABLE_BOND>
0

> <PUBCHEM_CACTVS_SUBSKEYS>
AAADceBwAAAAAAAAAAAAAAAAGAAAAYMGAAAAAAAABgAYAAAAAAAAGAAAAAAADwCAAAACAAAAAAAAAAAAAAAAAAAAAAAAAAAAAAAAAAIAAAAAAAAAAAAAAAEAgMAPgAAAAAAAAACAAAQAACAAAQAACAAAAA==

> <PUBCHEM_IUPAC_OPENEYE_NAME>
2,6,6,9-tetramethyltetracyclo[5.4.0.0^{2,9}.0^{8,10}]undecane

> <PUBCHEM_IUPAC_CAS_NAME>
2,6,6,9-tetramethyltetracyclo[5.4.0.0^{2,9}.0^{8,10}]undecane

> <PUBCHEM_IUPAC_NAME>
2,6,6,9-tetramethyltetracyclo[5.4.0.0^{2,9}.0^{8,10}]undecane

> <PUBCHEM_IUPAC_SYSTEMATIC_NAME>
2,6,6,9-tetramethyltetracyclo[5.4.0.0^{2,9}.0^{8,10}]undecane

> <PUBCHEM_IUPAC_TRADITIONAL_NAME>
2,6,6,9-tetramethyltetracyclo[5.4.0.0^{2,9}.0^{8,10}]undecane

> <PUBCHEM_IUPAC_INCHI>
InChI=1S/C15H24/c1-13(2)6-5-7-14(3)9-8-10-12(11(9)13)15(10,14)4/h9-12H,5-8H2,1-4H3

> <PUBCHEM_IUPAC_INCHIKEY>
WCEIQUQVIOGRBF-UHFFFAOYSA-N

> <PUBCHEM_XLOGP3_AA>
5

> <PUBCHEM_EXACT_MASS>
204.188

> <PUBCHEM_MOLECULAR_FORMULA>
C15H24

> <PUBCHEM_MOLECULAR_WEIGHT>
204.357

> <PUBCHEM_OPENEYE_CAN_SMILES>
CC1(CCCC2(C3C1C4C2(C4C3)C)C)C

> <PUBCHEM_OPENEYE_ISO_SMILES>
CC1(CCCC2(C3C1C4C2(C4C3)C)C)C

> <PUBCHEM_CACTVS_TPSA>
0

> <PUBCHEM_MONOISOTOPIC_WEIGHT>
204.188

> <PUBCHEM_TOTAL_CHARGE>
0

> <PUBCHEM_HEAVY_ATOM_COUNT>
15

> <PUBCHEM_ATOM_DEF_STEREO_COUNT>
0

> <PUBCHEM_ATOM_UDEF_STEREO_COUNT>
6

> <PUBCHEM_BOND_DEF_STEREO_COUNT>
0

> <PUBCHEM_BOND_UDEF_STEREO_COUNT>
0

> <PUBCHEM_ISOTOPIC_ATOM_COUNT>
0

> <PUBCHEM_COMPONENT_COUNT>
1

> <PUBCHEM_CACTVS_TAUTO_COUNT>
-1

> <PUBCHEM_COORDINATE_TYPE>
1
5
255

> <PUBCHEM_BONDANNOTATIONS>
1  2  3
2  3  3
3  7  3
4  11  3
5  7  3
6  8  3

$$$$
289151
  -OEChem-02201912152D

 39 41  0     1  0  0  0  0  0999 V2000
    3.1621    0.0729    0.0000 C   0  0  3  0  0  0  0  0  0  0  0  0
    3.9985   -0.3299    0.0000 C   0  0  3  0  0  0  0  0  0  0  0  0
    4.8348    0.0729    0.0000 C   0  0  3  0  0  0  0  0  0  0  0  0
    3.1514   -0.7888    0.0000 C   0  0  3  0  0  0  0  0  0  0  0  0
    2.9556    0.9779    0.0000 C   0  0  0  0  0  0  0  0  0  0  0  0
    4.4917   -1.2993    0.0000 C   0  0  0  0  0  0  0  0  0  0  0  0
    4.8535   -0.7888    0.0000 C   0  0  0  0  0  0  0  0  0  0  0  0
    3.6195   -1.7036    0.0000 C   0  0  0  0  0  0  0  0  0  0  0  0
    5.0414    0.9779    0.0000 C   0  0  0  0  0  0  0  0  0  0  0  0
    3.5344    1.7036    0.0000 C   0  0  0  0  0  0  0  0  0  0  0  0
    4.4626    1.7036    0.0000 C   0  0  0  0  0  0  0  0  0  0  0  0
    5.8297   -0.0283    0.0000 C   0  0  0  0  0  0  0  0  0  0  0  0
    2.1294    1.5412    0.0000 C   0  0  0  0  0  0  0  0  0  0  0  0
    2.0000    0.6832    0.0000 C   0  0  0  0  0  0  0  0  0  0  0  0
    5.8471   -0.9017    0.0000 C   0  0  0  0  0  0  0  0  0  0  0  0
    2.5456    0.0073    0.0000 H   0  0  0  0  0  0  0  0  0  0  0  0
    4.5859   -0.5282    0.0000 H   0  0  0  0  0  0  0  0  0  0  0  0
    2.5478   -0.9303    0.0000 H   0  0  0  0  0  0  0  0  0  0  0  0
    4.7593   -1.8586    0.0000 H   0  0  0  0  0  0  0  0  0  0  0  0
    5.0477   -1.0249    0.0000 H   0  0  0  0  0  0  0  0  0  0  0  0
    3.0639   -1.9788    0.0000 H   0  0  0  0  0  0  0  0  0  0  0  0
    3.8874   -2.2626    0.0000 H   0  0  0  0  0  0  0  0  0  0  0  0
    5.6000    0.7089    0.0000 H   0  0  0  0  0  0  0  0  0  0  0  0
    5.4279    1.4626    0.0000 H   0  0  0  0  0  0  0  0  0  0  0  0
    3.6723    2.3080    0.0000 H   0  0  0  0  0  0  0  0  0  0  0  0
    2.9758    1.9726    0.0000 H   0  0  0  0  0  0  0  0  0  0  0  0
    5.0212    1.9726    0.0000 H   0  0  0  0  0  0  0  0  0  0  0  0
    4.3246    2.3080    0.0000 H   0  0  0  0  0  0  0  0  0  0  0  0
    5.7669   -0.6451    0.0000 H   0  0  0  0  0  0  0  0  0  0  0  0
    6.4465   -0.0911    0.0000 H   0  0  0  0  0  0  0  0  0  0  0  0
    5.8924    0.5885    0.0000 H   0  0  0  0  0  0  0  0  0  0  0  0
    2.4787    2.0535    0.0000 H   0  0  0  0  0  0  0  0  0  0  0  0
    1.6172    1.8905    0.0000 H   0  0  0  0  0  0  0  0  0  0  0  0
    1.7801    1.0290    0.0000 H   0  0  0  0  0  0  0  0  0  0  0  0
    1.8173    1.2756    0.0000 H   0  0  0  0  0  0  0  0  0  0  0  0
    1.4075    0.5005    0.0000 H   0  0  0  0  0  0  0  0  0  0  0  0
    2.1827    0.0907    0.0000 H   0  0  0  0  0  0  0  0  0  0  0  0
    6.0945   -1.4702    0.0000 H   0  0  0  0  0  0  0  0  0  0  0  0
    6.2157   -0.4032    0.0000 H   0  0  0  0  0  0  0  0  0  0  0  0
  1  2  1  0  0  0  0
  1  4  1  0  0  0  0
  1  5  1  0  0  0  0
  1 16  1  0  0  0  0
  2  3  1  0  0  0  0
  2  6  1  0  0  0  0
  2 17  1  0  0  0  0
  3  7  1  0  0  0  0
  3  9  1  0  0  0  0
  3 12  1  0  0  0  0
  4  7  1  0  0  0  0
  4  8  1  0  0  0  0
  4 18  1  0  0  0  0
  5 10  1  0  0  0  0
  5 13  1  0  0  0  0
  5 14  1  0  0  0  0
  6  8  1  0  0  0  0
  6 19  1  0  0  0  0
  6 20  1  0  0  0  0
  7 15  2  0  0  0  0
  8 21  1  0  0  0  0
  8 22  1  0  0  0  0
  9 11  1  0  0  0  0
  9 23  1  0  0  0  0
  9 24  1  0  0  0  0
 10 11  1  0  0  0  0
 10 25  1  0  0  0  0
 10 26  1  0  0  0  0
 11 27  1  0  0  0  0
 11 28  1  0  0  0  0
 12 29  1  0  0  0  0
 12 30  1  0  0  0  0
 12 31  1  0  0  0  0
 13 32  1  0  0  0  0
 13 33  1  0  0  0  0
 13 34  1  0  0  0  0
 14 35  1  0  0  0  0
 14 36  1  0  0  0  0
 14 37  1  0  0  0  0
 15 38  1  0  0  0  0
 15 39  1  0  0  0  0
M  END
> <PUBCHEM_COMPOUND_CID>
289151

> <PUBCHEM_COMPOUND_CANONICALIZED>
1

> <PUBCHEM_CACTVS_COMPLEXITY>
312

> <PUBCHEM_CACTVS_HBOND_ACCEPTOR>
0

> <PUBCHEM_CACTVS_HBOND_DONOR>
0

> <PUBCHEM_CACTVS_ROTATABLE_BOND>
0

> <PUBCHEM_CACTVS_SUBSKEYS>
AAADceBwAAAAAAAAAAAAAAAAAAAAAYMAAAAwAAAABgAYAAAAAAAAGAAAAAAADwCAAAACAAAAAACAAgBCAAAAAAAgAAAAAAAAAAgAAAIAAQAAAAAAgAAAAAEAgMAPgAAAAAAAAAAAAAQAACAAAQAACAAAAA==

> <PUBCHEM_IUPAC_OPENEYE_NAME>
3,3,7-trimethyl-8-methylene-tricyclo[5.4.0.0^{2,9}]undecane

> <PUBCHEM_IUPAC_CAS_NAME>
3,3,7-trimethyl-8-methylenetricyclo[5.4.0.0^{2,9}]undecane

> <PUBCHEM_IUPAC_NAME>
3,3,7-trimethyl-8-methylidenetricyclo[5.4.0.0^{2,9}]undecane

> <PUBCHEM_IUPAC_SYSTEMATIC_NAME>
3,3,7-trimethyl-8-methylidene-tricyclo[5.4.0.0^{2,9}]undecane

> <PUBCHEM_IUPAC_TRADITIONAL_NAME>
3,3,7-trimethyl-8-methylene-tricyclo[5.4.0.0^{2,9}]undecane

> <PUBCHEM_IUPAC_INCHI>
InChI=1S/C15H24/c1-10-11-6-7-12-13(11)14(2,3)8-5-9-15(10,12)4/h11-13H,1,5-9H2,2-4H3

> <PUBCHEM_IUPAC_INCHIKEY>
PDSNLYSELAIEBU-UHFFFAOYSA-N

> <PUBCHEM_XLOGP3_AA>
5.1

> <PUBCHEM_EXACT_MASS>
204.188

> <PUBCHEM_MOLECULAR_FORMULA>
C15H24

> <PUBCHEM_MOLECULAR_WEIGHT>
204.357

> <PUBCHEM_OPENEYE_CAN_SMILES>
CC1(CCCC2(C3C1C(C2=C)CC3)C)C

> <PUBCHEM_OPENEYE_ISO_SMILES>
CC1(CCCC2(C3C1C(C2=C)CC3)C)C

> <PUBCHEM_CACTVS_TPSA>
0

> <PUBCHEM_MONOISOTOPIC_WEIGHT>
204.188

> <PUBCHEM_TOTAL_CHARGE>
0

> <PUBCHEM_HEAVY_ATOM_COUNT>
15

> <PUBCHEM_ATOM_DEF_STEREO_COUNT>
0

> <PUBCHEM_ATOM_UDEF_STEREO_COUNT>
4

> <PUBCHEM_BOND_DEF_STEREO_COUNT>
0

> <PUBCHEM_BOND_UDEF_STEREO_COUNT>
0

> <PUBCHEM_ISOTOPIC_ATOM_COUNT>
0

> <PUBCHEM_COMPONENT_COUNT>
1

> <PUBCHEM_CACTVS_TAUTO_COUNT>
-1

> <PUBCHEM_COORDINATE_TYPE>
1
5
255

> <PUBCHEM_BONDANNOTATIONS>
1  5  3
2  6  3
3  12  3
4  8  3

$$$$
5284507
  -OEChem-02201912152D

 42 41  0     1  0  0  0  0  0999 V2000
    2.5369   -0.8660    0.0000 O   0  0  0  0  0  0  0  0  0  0  0  0
    3.4030   -0.3660    0.0000 C   0  0  3  0  0  0  0  0  0  0  0  0
    4.2690    0.1340    0.0000 C   0  0  0  0  0  0  0  0  0  0  0  0
    5.1350   -0.3660    0.0000 C   0  0  0  0  0  0  0  0  0  0  0  0
    6.0010    0.1340    0.0000 C   0  0  0  0  0  0  0  0  0  0  0  0
    6.8671   -0.3660    0.0000 C   0  0  0  0  0  0  0  0  0  0  0  0
    7.7331    0.1340    0.0000 C   0  0  0  0  0  0  0  0  0  0  0  0
    3.9030   -1.2320    0.0000 C   0  0  0  0  0  0  0  0  0  0  0  0
    2.9030    0.5000    0.0000 C   0  0  0  0  0  0  0  0  0  0  0  0
    8.5991   -0.3660    0.0000 C   0  0  0  0  0  0  0  0  0  0  0  0
    6.8671   -1.3660    0.0000 C   0  0  0  0  0  0  0  0  0  0  0  0
    9.4651    0.1340    0.0000 C   0  0  0  0  0  0  0  0  0  0  0  0
   10.3312   -0.3660    0.0000 C   0  0  0  0  0  0  0  0  0  0  0  0
    3.4030    1.3660    0.0000 C   0  0  0  0  0  0  0  0  0  0  0  0
   11.1972    0.1340    0.0000 C   0  0  0  0  0  0  0  0  0  0  0  0
   10.3312   -1.3660    0.0000 C   0  0  0  0  0  0  0  0  0  0  0  0
    4.6675    0.6089    0.0000 H   0  0  0  0  0  0  0  0  0  0  0  0
    3.8705    0.6089    0.0000 H   0  0  0  0  0  0  0  0  0  0  0  0
    4.7365   -0.8410    0.0000 H   0  0  0  0  0  0  0  0  0  0  0  0
    5.5335   -0.8410    0.0000 H   0  0  0  0  0  0  0  0  0  0  0  0
    6.0010    0.7540    0.0000 H   0  0  0  0  0  0  0  0  0  0  0  0
    8.1316    0.6089    0.0000 H   0  0  0  0  0  0  0  0  0  0  0  0
    7.3346    0.6089    0.0000 H   0  0  0  0  0  0  0  0  0  0  0  0
    3.3660   -1.5420    0.0000 H   0  0  0  0  0  0  0  0  0  0  0  0
    4.2130   -1.7690    0.0000 H   0  0  0  0  0  0  0  0  0  0  0  0
    4.4399   -0.9221    0.0000 H   0  0  0  0  0  0  0  0  0  0  0  0
    2.2830    0.5000    0.0000 H   0  0  0  0  0  0  0  0  0  0  0  0
    8.2006   -0.8410    0.0000 H   0  0  0  0  0  0  0  0  0  0  0  0
    8.9976   -0.8410    0.0000 H   0  0  0  0  0  0  0  0  0  0  0  0
    6.2471   -1.3660    0.0000 H   0  0  0  0  0  0  0  0  0  0  0  0
    6.8671   -1.9860    0.0000 H   0  0  0  0  0  0  0  0  0  0  0  0
    7.4871   -1.3660    0.0000 H   0  0  0  0  0  0  0  0  0  0  0  0
    2.0000   -0.5560    0.0000 H   0  0  0  0  0  0  0  0  0  0  0  0
    9.4651    0.7540    0.0000 H   0  0  0  0  0  0  0  0  0  0  0  0
    4.0230    1.3660    0.0000 H   0  0  0  0  0  0  0  0  0  0  0  0
    3.0930    1.9030    0.0000 H   0  0  0  0  0  0  0  0  0  0  0  0
   11.5072   -0.4030    0.0000 H   0  0  0  0  0  0  0  0  0  0  0  0
   11.7341    0.4440    0.0000 H   0  0  0  0  0  0  0  0  0  0  0  0
    9.7112   -1.3660    0.0000 H   0  0  0  0  0  0  0  0  0  0  0  0
   10.8872    0.6709    0.0000 H   0  0  0  0  0  0  0  0  0  0  0  0
   10.3312   -1.9860    0.0000 H   0  0  0  0  0  0  0  0  0  0  0  0
   10.9512   -1.3660    0.0000 H   0  0  0  0  0  0  0  0  0  0  0  0
  1  2  1  0  0  0  0
  1 33  1  0  0  0  0
  2  3  1  0  0  0  0
  2  8  1  0  0  0  0
  2  9  1  0  0  0  0
  3  4  1  0  0  0  0
  3 17  1  0  0  0  0
  3 18  1  0  0  0  0
  4  5  1  0  0  0  0
  4 19  1  0  0  0  0
  4 20  1  0  0  0  0
  5  6  2  0  0  0  0
  5 21  1  0  0  0  0
  6  7  1  0  0  0  0
  6 11  1  0  0  0  0
  7 10  1  0  0  0  0
  7 22  1  0  0  0  0
  7 23  1  0  0  0  0
  8 24  1  0  0  0  0
  8 25  1  0  0  0  0
  8 26  1  0  0  0  0
  9 14  2  0  0  0  0
  9 27  1  0  0  0  0
 10 12  1  0  0  0  0
 10 28  1  0  0  0  0
 10 29  1  0  0  0  0
 11 30  1  0  0  0  0
 11 31  1  0  0  0  0
 11 32  1  0  0  0  0
 12 13  2  0  0  0  0
 12 34  1  0  0  0  0
 13 15  1  0  0  0  0
 13 16  1  0  0  0  0
 14 35  1  0  0  0  0
 14 36  1  0  0  0  0
 15 37  1  0  0  0  0
 15 38  1  0  0  0  0
 15 40  1  0  0  0  0
 16 39  1  0  0  0  0
 16 41  1  0  0  0  0
 16 42  1  0  0  0  0
M  END
> <PUBCHEM_COMPOUND_CID>
5284507

> <PUBCHEM_COMPOUND_CANONICALIZED>
1

> <PUBCHEM_CACTVS_COMPLEXITY>
269

> <PUBCHEM_CACTVS_HBOND_ACCEPTOR>
1

> <PUBCHEM_CACTVS_HBOND_DONOR>
1

> <PUBCHEM_CACTVS_ROTATABLE_BOND>
7

> <PUBCHEM_CACTVS_SUBSKEYS>
AAADceBwIAAAAAAAAAAAAAAAAAAAAAAAAAAAAAAAAAAAAAAAAAAAGgAACAAADESAgAACAAAAAgCAAiBCAAAAAAAgAAAICAAAAAgABAIAAQAAQAAEgAAIEAIAAAAMAAAAAAAAAAAAAAAAAAAAAAAAAAAAAA==

> <PUBCHEM_IUPAC_OPENEYE_NAME>
(6~{E})-3,7,11-trimethyldodeca-1,6,10-trien-3-ol

> <PUBCHEM_IUPAC_CAS_NAME>
(6~{E})-3,7,11-trimethyl-3-dodeca-1,6,10-trienol

> <PUBCHEM_IUPAC_NAME>
(6~{E})-3,7,11-trimethyldodeca-1,6,10-trien-3-ol

> <PUBCHEM_IUPAC_SYSTEMATIC_NAME>
(6~{E})-3,7,11-trimethyldodeca-1,6,10-trien-3-ol

> <PUBCHEM_IUPAC_TRADITIONAL_NAME>
(6~{E})-3,7,11-trimethyldodeca-1,6,10-trien-3-ol

> <PUBCHEM_IUPAC_INCHI>
InChI=1S/C15H26O/c1-6-15(5,16)12-8-11-14(4)10-7-9-13(2)3/h6,9,11,16H,1,7-8,10,12H2,2-5H3/b14-11+

> <PUBCHEM_IUPAC_INCHIKEY>
FQTLCLSUCSAZDY-SDNWHVSQSA-N

> <PUBCHEM_XLOGP3_AA>
4.6

> <PUBCHEM_EXACT_MASS>
222.198

> <PUBCHEM_MOLECULAR_FORMULA>
C15H26O

> <PUBCHEM_MOLECULAR_WEIGHT>
222.372

> <PUBCHEM_OPENEYE_CAN_SMILES>
CC(=CCCC(=CCCC(C)(C=C)O)C)C

> <PUBCHEM_OPENEYE_ISO_SMILES>
CC(=CCC/C(=C/CCC(C)(C=C)O)/C)C

> <PUBCHEM_CACTVS_TPSA>
20.2

> <PUBCHEM_MONOISOTOPIC_WEIGHT>
222.198

> <PUBCHEM_TOTAL_CHARGE>
0

> <PUBCHEM_HEAVY_ATOM_COUNT>
16

> <PUBCHEM_ATOM_DEF_STEREO_COUNT>
0

> <PUBCHEM_ATOM_UDEF_STEREO_COUNT>
1

> <PUBCHEM_BOND_DEF_STEREO_COUNT>
1

> <PUBCHEM_BOND_UDEF_STEREO_COUNT>
0

> <PUBCHEM_ISOTOPIC_ATOM_COUNT>
0

> <PUBCHEM_COMPONENT_COUNT>
1

> <PUBCHEM_CACTVS_TAUTO_COUNT>
-1

> <PUBCHEM_COORDINATE_TYPE>
1
5
255

> <PUBCHEM_BONDANNOTATIONS>
2  1  3

$$$$
442402
  -OEChem-02201912152D

 39 41  0     1  0  0  0  0  0999 V2000
    3.7320   -0.0492    0.0000 C   0  0  1  0  0  0  0  0  0  0  0  0
    2.8660    0.4508    0.0000 C   0  0  1  0  0  0  0  0  0  0  0  0
    4.5981    0.4508    0.0000 C   0  0  1  0  0  0  0  0  0  0  0  0
    2.8658   -0.5496    0.0000 C   0  0  0  0  0  0  0  0  0  0  0  0
    3.7160   -1.0907    0.0000 C   0  0  0  0  0  0  0  0  0  0  0  0
    5.5081   -0.0560    0.0000 C   0  0  0  0  0  0  0  0  0  0  0  0
    4.6140   -1.6184    0.0000 C   0  0  0  0  0  0  0  0  0  0  0  0
    4.5981    1.4508    0.0000 C   0  0  0  0  0  0  0  0  0  0  0  0
    2.8660    1.4508    0.0000 C   0  0  0  0  0  0  0  0  0  0  0  0
    5.5161   -1.0976    0.0000 C   0  0  0  0  0  0  0  0  0  0  0  0
    5.4641    0.9508    0.0000 C   0  0  0  0  0  0  0  0  0  0  0  0
    3.2060   -1.9508    0.0000 C   0  0  0  0  0  0  0  0  0  0  0  0
    2.7724   -1.4218    0.0000 C   0  0  0  0  0  0  0  0  0  0  0  0
    3.7320    1.9508    0.0000 C   0  0  0  0  0  0  0  0  0  0  0  0
    2.0000    1.9508    0.0000 C   0  0  0  0  0  0  0  0  0  0  0  0
    2.0160    0.4510    0.0000 H   0  0  0  0  0  0  0  0  0  0  0  0
    2.2552   -0.6572    0.0000 H   0  0  0  0  0  0  0  0  0  0  0  0
    3.0779   -1.1322    0.0000 H   0  0  0  0  0  0  0  0  0  0  0  0
    6.1197   -0.1574    0.0000 H   0  0  0  0  0  0  0  0  0  0  0  0
    5.7126    0.5293    0.0000 H   0  0  0  0  0  0  0  0  0  0  0  0
    4.2131   -2.0913    0.0000 H   0  0  0  0  0  0  0  0  0  0  0  0
    5.0113   -2.0944    0.0000 H   0  0  0  0  0  0  0  0  0  0  0  0
    5.2087    1.3432    0.0000 H   0  0  0  0  0  0  0  0  0  0  0  0
    4.8101    2.0335    0.0000 H   0  0  0  0  0  0  0  0  0  0  0  0
    5.7297   -1.6797    0.0000 H   0  0  0  0  0  0  0  0  0  0  0  0
    6.1261   -0.9868    0.0000 H   0  0  0  0  0  0  0  0  0  0  0  0
    5.7741    0.4139    0.0000 H   0  0  0  0  0  0  0  0  0  0  0  0
    6.0010    1.2608    0.0000 H   0  0  0  0  0  0  0  0  0  0  0  0
    5.1541    1.4878    0.0000 H   0  0  0  0  0  0  0  0  0  0  0  0
    2.6727   -1.6347    0.0000 H   0  0  0  0  0  0  0  0  0  0  0  0
    2.8898   -2.4842    0.0000 H   0  0  0  0  0  0  0  0  0  0  0  0
    3.7393   -2.2670    0.0000 H   0  0  0  0  0  0  0  0  0  0  0  0
    2.5671   -0.8368    0.0000 H   0  0  0  0  0  0  0  0  0  0  0  0
    2.1874   -1.6271    0.0000 H   0  0  0  0  0  0  0  0  0  0  0  0
    2.9777   -2.0068    0.0000 H   0  0  0  0  0  0  0  0  0  0  0  0
    3.7320    2.5708    0.0000 H   0  0  0  0  0  0  0  0  0  0  0  0
    2.3100    2.4878    0.0000 H   0  0  0  0  0  0  0  0  0  0  0  0
    1.4631    2.2608    0.0000 H   0  0  0  0  0  0  0  0  0  0  0  0
    1.6900    1.4139    0.0000 H   0  0  0  0  0  0  0  0  0  0  0  0
  1  2  1  0  0  0  0
  1  3  1  0  0  0  0
  1  4  1  1  0  0  0
  1  5  1  0  0  0  0
  2  4  1  0  0  0  0
  2  9  1  0  0  0  0
  2 16  1  6  0  0  0
  3  6  1  0  0  0  0
  3  8  1  0  0  0  0
  3 11  1  1  0  0  0
  4 17  1  0  0  0  0
  4 18  1  0  0  0  0
  5  7  1  0  0  0  0
  5 12  1  0  0  0  0
  5 13  1  0  0  0  0
  6 10  1  0  0  0  0
  6 19  1  0  0  0  0
  6 20  1  0  0  0  0
  7 10  1  0  0  0  0
  7 21  1  0  0  0  0
  7 22  1  0  0  0  0
  8 14  1  0  0  0  0
  8 23  1  0  0  0  0
  8 24  1  0  0  0  0
  9 14  2  0  0  0  0
  9 15  1  0  0  0  0
 10 25  1  0  0  0  0
 10 26  1  0  0  0  0
 11 27  1  0  0  0  0
 11 28  1  0  0  0  0
 11 29  1  0  0  0  0
 12 30  1  0  0  0  0
 12 31  1  0  0  0  0
 12 32  1  0  0  0  0
 13 33  1  0  0  0  0
 13 34  1  0  0  0  0
 13 35  1  0  0  0  0
 14 36  1  0  0  0  0
 15 37  1  0  0  0  0
 15 38  1  0  0  0  0
 15 39  1  0  0  0  0
M  END
> <PUBCHEM_COMPOUND_CID>
442402

> <PUBCHEM_COMPOUND_CANONICALIZED>
1

> <PUBCHEM_CACTVS_COMPLEXITY>
336

> <PUBCHEM_CACTVS_HBOND_ACCEPTOR>
0

> <PUBCHEM_CACTVS_HBOND_DONOR>
0

> <PUBCHEM_CACTVS_ROTATABLE_BOND>
0

> <PUBCHEM_CACTVS_SUBSKEYS>
AAADceBwAAAAAAAAAAAAAAAAGAAAAAAAAAAwQAAABAAAAACAAAAAGAAAAAAADwCAAAACAAAAAACAAiBCAAAAAAAgAAAACAAAAAgAAAIAAQAAAAAAgAAIAAMAgMAPgAAAAAAAAAAAAAQAACAAAAAAAAAAAA==

> <PUBCHEM_IUPAC_OPENEYE_NAME>
(1~{a}~{S},4~{a}~{S},8~{a}~{S})-2,4~{a},8,8-tetramethyl-1,1~{a},4,5,6,7-hexahydrocyclopropa[j]naphthalene

> <PUBCHEM_IUPAC_CAS_NAME>
(1~{a}~{S},4~{a}~{S},8~{a}~{S})-2,4~{a},8,8-tetramethyl-1,1~{a},4,5,6,7-hexahydrocyclopropa[j]naphthalene

> <PUBCHEM_IUPAC_NAME>
(1~{a}~{S},4~{a}~{S},8~{a}~{S})-2,4~{a},8,8-tetramethyl-1,1~{a},4,5,6,7-hexahydrocyclopropa[j]naphthalene

> <PUBCHEM_IUPAC_SYSTEMATIC_NAME>
(1~{a}~{S},4~{a}~{S},8~{a}~{S})-2,4~{a},8,8-tetramethyl-1,1~{a},4,5,6,7-hexahydrocyclopropa[j]naphthalene

> <PUBCHEM_IUPAC_TRADITIONAL_NAME>
(1~{a}~{S},4~{a}~{S},8~{a}~{S})-2,4~{a},8,8-tetramethyl-1,1~{a},4,5,6,7-hexahydrocyclopropa[j]naphthalene

> <PUBCHEM_IUPAC_INCHI>
InChI=1S/C15H24/c1-11-6-9-14(4)8-5-7-13(2,3)15(14)10-12(11)15/h6,12H,5,7-10H2,1-4H3/t12-,14-,15-/m0/s1

> <PUBCHEM_IUPAC_INCHIKEY>
WXQGPFZDVCRBME-QEJZJMRPSA-N

> <PUBCHEM_XLOGP3_AA>
4.8

> <PUBCHEM_EXACT_MASS>
204.188

> <PUBCHEM_MOLECULAR_FORMULA>
C15H24

> <PUBCHEM_MOLECULAR_WEIGHT>
204.357

> <PUBCHEM_OPENEYE_CAN_SMILES>
CC1=CCC2(CCCC(C23C1C3)(C)C)C

> <PUBCHEM_OPENEYE_ISO_SMILES>
CC1=CC[C@@]2(CCCC([C@]23[C@H]1C3)(C)C)C

> <PUBCHEM_CACTVS_TPSA>
0

> <PUBCHEM_MONOISOTOPIC_WEIGHT>
204.188

> <PUBCHEM_TOTAL_CHARGE>
0

> <PUBCHEM_HEAVY_ATOM_COUNT>
15

> <PUBCHEM_ATOM_DEF_STEREO_COUNT>
3

> <PUBCHEM_ATOM_UDEF_STEREO_COUNT>
0

> <PUBCHEM_BOND_DEF_STEREO_COUNT>
0

> <PUBCHEM_BOND_UDEF_STEREO_COUNT>
0

> <PUBCHEM_ISOTOPIC_ATOM_COUNT>
0

> <PUBCHEM_COMPONENT_COUNT>
1

> <PUBCHEM_CACTVS_TAUTO_COUNT>
-1

> <PUBCHEM_COORDINATE_TYPE>
1
5
255

> <PUBCHEM_BONDANNOTATIONS>
1  4  5
2  16  6
3  11  5

$$$$
5362889
  -OEChem-02201912152D

 39 38  0     0  0  0  0  0  0999 V2000
    5.4641    0.6900    0.0000 C   0  0  0  0  0  0  0  0  0  0  0  0
    4.5981    0.1900    0.0000 C   0  0  0  0  0  0  0  0  0  0  0  0
    6.3301    0.1900    0.0000 C   0  0  0  0  0  0  0  0  0  0  0  0
    7.1962    0.6900    0.0000 C   0  0  0  0  0  0  0  0  0  0  0  0
    3.7320    0.6900    0.0000 C   0  0  0  0  0  0  0  0  0  0  0  0
    8.0622    0.1900    0.0000 C   0  0  0  0  0  0  0  0  0  0  0  0
    6.3301   -0.8100    0.0000 C   0  0  0  0  0  0  0  0  0  0  0  0
    2.8660    0.1900    0.0000 C   0  0  0  0  0  0  0  0  0  0  0  0
    8.9282    0.6900    0.0000 C   0  0  0  0  0  0  0  0  0  0  0  0
    2.0000    0.6900    0.0000 C   0  0  0  0  0  0  0  0  0  0  0  0
    2.8660   -0.8100    0.0000 C   0  0  0  0  0  0  0  0  0  0  0  0
    9.7942    0.1900    0.0000 C   0  0  0  0  0  0  0  0  0  0  0  0
   10.6603    0.6900    0.0000 C   0  0  0  0  0  0  0  0  0  0  0  0
    9.7942   -0.8100    0.0000 C   0  0  0  0  0  0  0  0  0  0  0  0
   10.6603   -1.3100    0.0000 C   0  0  0  0  0  0  0  0  0  0  0  0
    5.8626    1.1650    0.0000 H   0  0  0  0  0  0  0  0  0  0  0  0
    5.0656    1.1650    0.0000 H   0  0  0  0  0  0  0  0  0  0  0  0
    4.1996   -0.2849    0.0000 H   0  0  0  0  0  0  0  0  0  0  0  0
    4.9966   -0.2849    0.0000 H   0  0  0  0  0  0  0  0  0  0  0  0
    7.1962    1.3100    0.0000 H   0  0  0  0  0  0  0  0  0  0  0  0
    3.7320    1.3100    0.0000 H   0  0  0  0  0  0  0  0  0  0  0  0
    7.6636   -0.2849    0.0000 H   0  0  0  0  0  0  0  0  0  0  0  0
    8.4607   -0.2849    0.0000 H   0  0  0  0  0  0  0  0  0  0  0  0
    5.7101   -0.8100    0.0000 H   0  0  0  0  0  0  0  0  0  0  0  0
    6.3301   -1.4300    0.0000 H   0  0  0  0  0  0  0  0  0  0  0  0
    6.9501   -0.8100    0.0000 H   0  0  0  0  0  0  0  0  0  0  0  0
    8.9282    1.3100    0.0000 H   0  0  0  0  0  0  0  0  0  0  0  0
    2.3100    1.2269    0.0000 H   0  0  0  0  0  0  0  0  0  0  0  0
    1.4631    1.0000    0.0000 H   0  0  0  0  0  0  0  0  0  0  0  0
    1.6900    0.1531    0.0000 H   0  0  0  0  0  0  0  0  0  0  0  0
    2.2460   -0.8100    0.0000 H   0  0  0  0  0  0  0  0  0  0  0  0
    2.8660   -1.4300    0.0000 H   0  0  0  0  0  0  0  0  0  0  0  0
    3.4860   -0.8100    0.0000 H   0  0  0  0  0  0  0  0  0  0  0  0
   10.9703    0.1531    0.0000 H   0  0  0  0  0  0  0  0  0  0  0  0
   11.1972    1.0000    0.0000 H   0  0  0  0  0  0  0  0  0  0  0  0
   10.3503    1.2269    0.0000 H   0  0  0  0  0  0  0  0  0  0  0  0
    9.2573   -1.1200    0.0000 H   0  0  0  0  0  0  0  0  0  0  0  0
   10.6603   -1.9300    0.0000 H   0  0  0  0  0  0  0  0  0  0  0  0
   11.1972   -1.0000    0.0000 H   0  0  0  0  0  0  0  0  0  0  0  0
  1  2  1  0  0  0  0
  1  3  1  0  0  0  0
  1 16  1  0  0  0  0
  1 17  1  0  0  0  0
  2  5  1  0  0  0  0
  2 18  1  0  0  0  0
  2 19  1  0  0  0  0
  3  4  2  0  0  0  0
  3  7  1  0  0  0  0
  4  6  1  0  0  0  0
  4 20  1  0  0  0  0
  5  8  2  0  0  0  0
  5 21  1  0  0  0  0
  6  9  1  0  0  0  0
  6 22  1  0  0  0  0
  6 23  1  0  0  0  0
  7 24  1  0  0  0  0
  7 25  1  0  0  0  0
  7 26  1  0  0  0  0
  8 10  1  0  0  0  0
  8 11  1  0  0  0  0
  9 12  2  0  0  0  0
  9 27  1  0  0  0  0
 10 28  1  0  0  0  0
 10 29  1  0  0  0  0
 10 30  1  0  0  0  0
 11 31  1  0  0  0  0
 11 32  1  0  0  0  0
 11 33  1  0  0  0  0
 12 13  1  0  0  0  0
 12 14  1  0  0  0  0
 13 34  1  0  0  0  0
 13 35  1  0  0  0  0
 13 36  1  0  0  0  0
 14 15  2  0  0  0  0
 14 37  1  0  0  0  0
 15 38  1  0  0  0  0
 15 39  1  0  0  0  0
M  END
> <PUBCHEM_COMPOUND_CID>
5362889

> <PUBCHEM_COMPOUND_CANONICALIZED>
1

> <PUBCHEM_CACTVS_COMPLEXITY>
270

> <PUBCHEM_CACTVS_HBOND_ACCEPTOR>
0

> <PUBCHEM_CACTVS_HBOND_DONOR>
0

> <PUBCHEM_CACTVS_ROTATABLE_BOND>
6

> <PUBCHEM_CACTVS_SUBSKEYS>
AAADceBwAAAAAAAAAAAAAAAAAAAAAAAAAAAAAAAAAAAAAAAAAAAAGAAAAAAADACAAAACAAAAAACAAiBCAAAAAAAgAAAICAAAAAgIAAIAAQAAAAAAgAAIgAIAAAAAAAAAAAAAAAAAAAAAAAAAAAAAAAAAAA==

> <PUBCHEM_IUPAC_OPENEYE_NAME>
(3~{Z},6~{E})-3,7,11-trimethyldodeca-1,3,6,10-tetraene

> <PUBCHEM_IUPAC_CAS_NAME>
(3~{Z},6~{E})-3,7,11-trimethyldodeca-1,3,6,10-tetraene

> <PUBCHEM_IUPAC_NAME>
(3~{Z},6~{E})-3,7,11-trimethyldodeca-1,3,6,10-tetraene

> <PUBCHEM_IUPAC_SYSTEMATIC_NAME>
(3~{Z},6~{E})-3,7,11-trimethyldodeca-1,3,6,10-tetraene

> <PUBCHEM_IUPAC_TRADITIONAL_NAME>
(3~{Z},6~{E})-3,7,11-trimethyldodeca-1,3,6,10-tetraene

> <PUBCHEM_IUPAC_INCHI>
InChI=1S/C15H24/c1-6-14(4)10-8-12-15(5)11-7-9-13(2)3/h6,9-10,12H,1,7-8,11H2,2-5H3/b14-10-,15-12+

> <PUBCHEM_IUPAC_INCHIKEY>
CXENHBSYCFFKJS-OXYODPPFSA-N

> <PUBCHEM_XLOGP3_AA>
6.1

> <PUBCHEM_EXACT_MASS>
204.188

> <PUBCHEM_MOLECULAR_FORMULA>
C15H24

> <PUBCHEM_MOLECULAR_WEIGHT>
204.357

> <PUBCHEM_OPENEYE_CAN_SMILES>
CC(=CCCC(=CCC=C(C)C=C)C)C

> <PUBCHEM_OPENEYE_ISO_SMILES>
CC(=CCC/C(=C/C/C=C(/C)\C=C)/C)C

> <PUBCHEM_CACTVS_TPSA>
0

> <PUBCHEM_MONOISOTOPIC_WEIGHT>
204.188

> <PUBCHEM_TOTAL_CHARGE>
0

> <PUBCHEM_HEAVY_ATOM_COUNT>
15

> <PUBCHEM_ATOM_DEF_STEREO_COUNT>
0

> <PUBCHEM_ATOM_UDEF_STEREO_COUNT>
0

> <PUBCHEM_BOND_DEF_STEREO_COUNT>
2

> <PUBCHEM_BOND_UDEF_STEREO_COUNT>
0

> <PUBCHEM_ISOTOPIC_ATOM_COUNT>
0

> <PUBCHEM_COMPONENT_COUNT>
1

> <PUBCHEM_CACTVS_TAUTO_COUNT>
-1

> <PUBCHEM_COORDINATE_TYPE>
1
5
255

$$$$
5317319
  -OEChem-02201912152D

 39 38  0     0  0  0  0  0  0999 V2000
    4.5981    0.4400    0.0000 C   0  0  0  0  0  0  0  0  0  0  0  0
    4.5981    1.4400    0.0000 C   0  0  0  0  0  0  0  0  0  0  0  0
    3.7320   -0.0600    0.0000 C   0  0  0  0  0  0  0  0  0  0  0  0
    6.3301    1.4400    0.0000 C   0  0  0  0  0  0  0  0  0  0  0  0
    5.4641    1.9400    0.0000 C   0  0  0  0  0  0  0  0  0  0  0  0
    7.1962    1.9400    0.0000 C   0  0  0  0  0  0  0  0  0  0  0  0
    3.7320   -1.0600    0.0000 C   0  0  0  0  0  0  0  0  0  0  0  0
    3.7320    1.9400    0.0000 C   0  0  0  0  0  0  0  0  0  0  0  0
    2.8660   -1.5600    0.0000 C   0  0  0  0  0  0  0  0  0  0  0  0
    8.0622    1.4400    0.0000 C   0  0  0  0  0  0  0  0  0  0  0  0
    2.8660   -2.5600    0.0000 C   0  0  0  0  0  0  0  0  0  0  0  0
    2.0000   -1.0600    0.0000 C   0  0  0  0  0  0  0  0  0  0  0  0
    8.9282    1.9400    0.0000 C   0  0  0  0  0  0  0  0  0  0  0  0
    8.0622    0.4400    0.0000 C   0  0  0  0  0  0  0  0  0  0  0  0
    9.7942    1.4400    0.0000 C   0  0  0  0  0  0  0  0  0  0  0  0
    4.8101   -0.1426    0.0000 H   0  0  0  0  0  0  0  0  0  0  0  0
    5.2087    0.5477    0.0000 H   0  0  0  0  0  0  0  0  0  0  0  0
    3.5200    0.5226    0.0000 H   0  0  0  0  0  0  0  0  0  0  0  0
    3.1215   -0.1677    0.0000 H   0  0  0  0  0  0  0  0  0  0  0  0
    5.9316    0.9651    0.0000 H   0  0  0  0  0  0  0  0  0  0  0  0
    6.7287    0.9651    0.0000 H   0  0  0  0  0  0  0  0  0  0  0  0
    5.4641    2.5600    0.0000 H   0  0  0  0  0  0  0  0  0  0  0  0
    7.5947    2.4150    0.0000 H   0  0  0  0  0  0  0  0  0  0  0  0
    6.7976    2.4150    0.0000 H   0  0  0  0  0  0  0  0  0  0  0  0
    4.2690   -1.3700    0.0000 H   0  0  0  0  0  0  0  0  0  0  0  0
    4.0420    2.4769    0.0000 H   0  0  0  0  0  0  0  0  0  0  0  0
    3.1951    2.2500    0.0000 H   0  0  0  0  0  0  0  0  0  0  0  0
    3.4220    1.4031    0.0000 H   0  0  0  0  0  0  0  0  0  0  0  0
    2.3100   -0.5231    0.0000 H   0  0  0  0  0  0  0  0  0  0  0  0
    2.2460   -2.5600    0.0000 H   0  0  0  0  0  0  0  0  0  0  0  0
    2.8660   -3.1800    0.0000 H   0  0  0  0  0  0  0  0  0  0  0  0
    3.4860   -2.5600    0.0000 H   0  0  0  0  0  0  0  0  0  0  0  0
    1.4631   -0.7500    0.0000 H   0  0  0  0  0  0  0  0  0  0  0  0
    1.6900   -1.5969    0.0000 H   0  0  0  0  0  0  0  0  0  0  0  0
    8.9282    2.5600    0.0000 H   0  0  0  0  0  0  0  0  0  0  0  0
    7.5252    0.1300    0.0000 H   0  0  0  0  0  0  0  0  0  0  0  0
    8.5991    0.1300    0.0000 H   0  0  0  0  0  0  0  0  0  0  0  0
    9.7942    0.8200    0.0000 H   0  0  0  0  0  0  0  0  0  0  0  0
   10.3312    1.7500    0.0000 H   0  0  0  0  0  0  0  0  0  0  0  0
  1  2  1  0  0  0  0
  1  3  1  0  0  0  0
  1 16  1  0  0  0  0
  1 17  1  0  0  0  0
  2  5  2  0  0  0  0
  2  8  1  0  0  0  0
  3  7  1  0  0  0  0
  3 18  1  0  0  0  0
  3 19  1  0  0  0  0
  4  5  1  0  0  0  0
  4  6  1  0  0  0  0
  4 20  1  0  0  0  0
  4 21  1  0  0  0  0
  5 22  1  0  0  0  0
  6 10  1  0  0  0  0
  6 23  1  0  0  0  0
  6 24  1  0  0  0  0
  7  9  2  0  0  0  0
  7 25  1  0  0  0  0
  8 26  1  0  0  0  0
  8 27  1  0  0  0  0
  8 28  1  0  0  0  0
  9 11  1  0  0  0  0
  9 12  1  0  0  0  0
 10 13  1  0  0  0  0
 10 14  2  0  0  0  0
 11 30  1  0  0  0  0
 11 31  1  0  0  0  0
 11 32  1  0  0  0  0
 12 29  1  0  0  0  0
 12 33  1  0  0  0  0
 12 34  1  0  0  0  0
 13 15  2  0  0  0  0
 13 35  1  0  0  0  0
 14 36  1  0  0  0  0
 14 37  1  0  0  0  0
 15 38  1  0  0  0  0
 15 39  1  0  0  0  0
M  END
> <PUBCHEM_COMPOUND_CID>
5317319

> <PUBCHEM_COMPOUND_CANONICALIZED>
1

> <PUBCHEM_CACTVS_COMPLEXITY>
260

> <PUBCHEM_CACTVS_HBOND_ACCEPTOR>
0

> <PUBCHEM_CACTVS_HBOND_DONOR>
0

> <PUBCHEM_CACTVS_ROTATABLE_BOND>
7

> <PUBCHEM_CACTVS_SUBSKEYS>
AAADceBwAAAAAAAAAAAAAAAAAAAAAAAAAAAAAAAAAAAAAAAAAAAAGAAAAAAADACAAAACAAAAAACAAiBCAAAAAAAgAAAICAAAAAgIAAIAAQAAAAAAgAAIAAIAAAAAAAAAAAAAAAAAAAAAAAAAAAAAAAAAAA==

> <PUBCHEM_IUPAC_OPENEYE_NAME>
(6~{Z})-7,11-dimethyl-3-methylene-dodeca-1,6,10-triene

> <PUBCHEM_IUPAC_CAS_NAME>
(6~{Z})-7,11-dimethyl-3-methylenedodeca-1,6,10-triene

> <PUBCHEM_IUPAC_NAME>
(6~{Z})-7,11-dimethyl-3-methylidenedodeca-1,6,10-triene

> <PUBCHEM_IUPAC_SYSTEMATIC_NAME>
(6~{Z})-7,11-dimethyl-3-methylidene-dodeca-1,6,10-triene

> <PUBCHEM_IUPAC_TRADITIONAL_NAME>
(6~{Z})-7,11-dimethyl-3-methylene-dodeca-1,6,10-triene

> <PUBCHEM_IUPAC_INCHI>
InChI=1S/C15H24/c1-6-14(4)10-8-12-15(5)11-7-9-13(2)3/h6,9,12H,1,4,7-8,10-11H2,2-3,5H3/b15-12-

> <PUBCHEM_IUPAC_INCHIKEY>
JSNRRGGBADWTMC-QINSGFPZSA-N

> <PUBCHEM_XLOGP3_AA>
6.2

> <PUBCHEM_EXACT_MASS>
204.188

> <PUBCHEM_MOLECULAR_FORMULA>
C15H24

> <PUBCHEM_MOLECULAR_WEIGHT>
204.357

> <PUBCHEM_OPENEYE_CAN_SMILES>
CC(=CCCC(=CCCC(=C)C=C)C)C

> <PUBCHEM_OPENEYE_ISO_SMILES>
CC(=CCC/C(=C\CCC(=C)C=C)/C)C

> <PUBCHEM_CACTVS_TPSA>
0

> <PUBCHEM_MONOISOTOPIC_WEIGHT>
204.188

> <PUBCHEM_TOTAL_CHARGE>
0

> <PUBCHEM_HEAVY_ATOM_COUNT>
15

> <PUBCHEM_ATOM_DEF_STEREO_COUNT>
0

> <PUBCHEM_ATOM_UDEF_STEREO_COUNT>
0

> <PUBCHEM_BOND_DEF_STEREO_COUNT>
1

> <PUBCHEM_BOND_UDEF_STEREO_COUNT>
0

> <PUBCHEM_ISOTOPIC_ATOM_COUNT>
0

> <PUBCHEM_COMPONENT_COUNT>
1

> <PUBCHEM_CACTVS_TAUTO_COUNT>
-1

> <PUBCHEM_COORDINATE_TYPE>
1
5
255

$$$$
86608
  -OEChem-02201912152D

 39 40  0     1  0  0  0  0  0999 V2000
    5.4490    0.3292    0.0000 C   0  0  3  0  0  0  0  0  0  0  0  0
    4.3089    1.2863    0.0000 C   0  0  3  0  0  0  0  0  0  0  0  0
    4.0501    0.3204    0.0000 C   0  0  3  0  0  0  0  0  0  0  0  0
    3.5723    2.2689    0.0000 C   0  0  0  0  0  0  0  0  0  0  0  0
    2.2756    0.9752    0.0000 C   0  0  0  0  0  0  0  0  0  0  0  0
    5.9490   -0.5368    0.0000 C   0  0  0  0  0  0  0  0  0  0  0  0
    2.8290   -0.5453    0.0000 C   0  0  0  0  0  0  0  0  0  0  0  0
    6.3150    0.8292    0.0000 C   0  0  0  0  0  0  0  0  0  0  0  0
    2.0000    0.0139    0.0000 C   0  0  0  0  0  0  0  0  0  0  0  0
    6.9490   -0.5368    0.0000 C   0  0  0  0  0  0  0  0  0  0  0  0
    2.8639   -1.5447    0.0000 C   0  0  0  0  0  0  0  0  0  0  0  0
    7.4490   -1.4029    0.0000 C   0  0  0  0  0  0  0  0  0  0  0  0
    8.4490   -1.4029    0.0000 C   0  0  0  0  0  0  0  0  0  0  0  0
    8.9490   -2.2689    0.0000 C   0  0  0  0  0  0  0  0  0  0  0  0
    8.9490   -0.5368    0.0000 C   0  0  0  0  0  0  0  0  0  0  0  0
    4.7592    1.7124    0.0000 H   0  0  0  0  0  0  0  0  0  0  0  0
    4.2401   -0.2698    0.0000 H   0  0  0  0  0  0  0  0  0  0  0  0
    3.8901    2.8012    0.0000 H   0  0  0  0  0  0  0  0  0  0  0  0
    2.9591    2.3608    0.0000 H   0  0  0  0  0  0  0  0  0  0  0  0
    2.2706    1.5951    0.0000 H   0  0  0  0  0  0  0  0  0  0  0  0
    1.6613    1.0589    0.0000 H   0  0  0  0  0  0  0  0  0  0  0  0
    5.3664   -0.7489    0.0000 H   0  0  0  0  0  0  0  0  0  0  0  0
    6.0567   -1.1474    0.0000 H   0  0  0  0  0  0  0  0  0  0  0  0
    6.6250    0.2922    0.0000 H   0  0  0  0  0  0  0  0  0  0  0  0
    6.8520    1.1392    0.0000 H   0  0  0  0  0  0  0  0  0  0  0  0
    6.0050    1.3661    0.0000 H   0  0  0  0  0  0  0  0  0  0  0  0
    1.4174   -0.1982    0.0000 H   0  0  0  0  0  0  0  0  0  0  0  0
    7.5316   -0.3248    0.0000 H   0  0  0  0  0  0  0  0  0  0  0  0
    6.8413    0.0737    0.0000 H   0  0  0  0  0  0  0  0  0  0  0  0
    2.2443   -1.5663    0.0000 H   0  0  0  0  0  0  0  0  0  0  0  0
    2.8856   -2.1643    0.0000 H   0  0  0  0  0  0  0  0  0  0  0  0
    3.4836   -1.5231    0.0000 H   0  0  0  0  0  0  0  0  0  0  0  0
    7.1390   -1.9398    0.0000 H   0  0  0  0  0  0  0  0  0  0  0  0
    8.4121   -2.5789    0.0000 H   0  0  0  0  0  0  0  0  0  0  0  0
    9.2590   -2.8058    0.0000 H   0  0  0  0  0  0  0  0  0  0  0  0
    9.4859   -1.9589    0.0000 H   0  0  0  0  0  0  0  0  0  0  0  0
    9.4859   -0.8468    0.0000 H   0  0  0  0  0  0  0  0  0  0  0  0
    9.2590    0.0001    0.0000 H   0  0  0  0  0  0  0  0  0  0  0  0
    8.4121   -0.2268    0.0000 H   0  0  0  0  0  0  0  0  0  0  0  0
  1  2  1  0  0  0  0
  1  3  1  0  0  0  0
  1  6  1  0  0  0  0
  1  8  1  0  0  0  0
  2  4  1  0  0  0  0
  2  5  1  0  0  0  0
  2 16  1  0  0  0  0
  3  4  1  0  0  0  0
  3  7  1  0  0  0  0
  3 17  1  0  0  0  0
  4 18  1  0  0  0  0
  4 19  1  0  0  0  0
  5  9  1  0  0  0  0
  5 20  1  0  0  0  0
  5 21  1  0  0  0  0
  6 10  1  0  0  0  0
  6 22  1  0  0  0  0
  6 23  1  0  0  0  0
  7  9  2  0  0  0  0
  7 11  1  0  0  0  0
  8 24  1  0  0  0  0
  8 25  1  0  0  0  0
  8 26  1  0  0  0  0
  9 27  1  0  0  0  0
 10 12  1  0  0  0  0
 10 28  1  0  0  0  0
 10 29  1  0  0  0  0
 11 30  1  0  0  0  0
 11 31  1  0  0  0  0
 11 32  1  0  0  0  0
 12 13  2  0  0  0  0
 12 33  1  0  0  0  0
 13 14  1  0  0  0  0
 13 15  1  0  0  0  0
 14 34  1  0  0  0  0
 14 35  1  0  0  0  0
 14 36  1  0  0  0  0
 15 37  1  0  0  0  0
 15 38  1  0  0  0  0
 15 39  1  0  0  0  0
M  END
> <PUBCHEM_COMPOUND_CID>
86608

> <PUBCHEM_COMPOUND_CANONICALIZED>
1

> <PUBCHEM_CACTVS_COMPLEXITY>
304

> <PUBCHEM_CACTVS_HBOND_ACCEPTOR>
0

> <PUBCHEM_CACTVS_HBOND_DONOR>
0

> <PUBCHEM_CACTVS_ROTATABLE_BOND>
3

> <PUBCHEM_CACTVS_SUBSKEYS>
AAADceBwAAAAAAAAAAAAAAAAAABgAAAAAAAgQAAAAAAAAAAAAAAAGAAAAAAADwCAAAACAAAAAACAAiBCAAAAAAAgAAAACAAAAAgAAAIAAQAAAAAAgAAIAAMAgMAPgAAAAAAAAAAAAAAAAAAAAAAAAAAAAA==

> <PUBCHEM_IUPAC_OPENEYE_NAME>
2,6-dimethyl-6-(4-methylpent-3-enyl)bicyclo[3.1.1]hept-2-ene

> <PUBCHEM_IUPAC_CAS_NAME>
2,6-dimethyl-6-(4-methylpent-3-enyl)bicyclo[3.1.1]hept-2-ene

> <PUBCHEM_IUPAC_NAME>
2,6-dimethyl-6-(4-methylpent-3-enyl)bicyclo[3.1.1]hept-2-ene

> <PUBCHEM_IUPAC_SYSTEMATIC_NAME>
2,6-dimethyl-6-(4-methylpent-3-enyl)bicyclo[3.1.1]hept-2-ene

> <PUBCHEM_IUPAC_TRADITIONAL_NAME>
2,6-dimethyl-6-(4-methylpent-3-enyl)bicyclo[3.1.1]hept-2-ene

> <PUBCHEM_IUPAC_INCHI>
InChI=1S/C15H24/c1-11(2)6-5-9-15(4)13-8-7-12(3)14(15)10-13/h6-7,13-14H,5,8-10H2,1-4H3

> <PUBCHEM_IUPAC_INCHIKEY>
YMBFCQPIMVLNIU-UHFFFAOYSA-N

> <PUBCHEM_XLOGP3_AA>
4.8

> <PUBCHEM_EXACT_MASS>
204.188

> <PUBCHEM_MOLECULAR_FORMULA>
C15H24

> <PUBCHEM_MOLECULAR_WEIGHT>
204.357

> <PUBCHEM_OPENEYE_CAN_SMILES>
CC1=CCC2CC1C2(C)CCC=C(C)C

> <PUBCHEM_OPENEYE_ISO_SMILES>
CC1=CCC2CC1C2(C)CCC=C(C)C

> <PUBCHEM_CACTVS_TPSA>
0

> <PUBCHEM_MONOISOTOPIC_WEIGHT>
204.188

> <PUBCHEM_TOTAL_CHARGE>
0

> <PUBCHEM_HEAVY_ATOM_COUNT>
15

> <PUBCHEM_ATOM_DEF_STEREO_COUNT>
0

> <PUBCHEM_ATOM_UDEF_STEREO_COUNT>
3

> <PUBCHEM_BOND_DEF_STEREO_COUNT>
0

> <PUBCHEM_BOND_UDEF_STEREO_COUNT>
0

> <PUBCHEM_ISOTOPIC_ATOM_COUNT>
0

> <PUBCHEM_COMPONENT_COUNT>
1

> <PUBCHEM_CACTVS_TAUTO_COUNT>
-1

> <PUBCHEM_COORDINATE_TYPE>
1
5
255

> <PUBCHEM_BONDANNOTATIONS>
1  8  3
2  5  3
3  4  3

$$$$
5317319_2
  -OEChem-02201912152D

 39 38  0     0  0  0  0  0  0999 V2000
    4.5981    0.4400    0.0000 C   0  0  0  0  0  0  0  0  0  0  0  0
    4.5981    1.4400    0.0000 C   0  0  0  0  0  0  0  0  0  0  0  0
    3.7320   -0.0600    0.0000 C   0  0  0  0  0  0  0  0  0  0  0  0
    6.3301    1.4400    0.0000 C   0  0  0  0  0  0  0  0  0  0  0  0
    5.4641    1.9400    0.0000 C   0  0  0  0  0  0  0  0  0  0  0  0
    7.1962    1.9400    0.0000 C   0  0  0  0  0  0  0  0  0  0  0  0
    3.7320   -1.0600    0.0000 C   0  0  0  0  0  0  0  0  0  0  0  0
    3.7320    1.9400    0.0000 C   0  0  0  0  0  0  0  0  0  0  0  0
    2.8660   -1.5600    0.0000 C   0  0  0  0  0  0  0  0  0  0  0  0
    8.0622    1.4400    0.0000 C   0  0  0  0  0  0  0  0  0  0  0  0
    2.8660   -2.5600    0.0000 C   0  0  0  0  0  0  0  0  0  0  0  0
    2.0000   -1.0600    0.0000 C   0  0  0  0  0  0  0  0  0  0  0  0
    8.9282    1.9400    0.0000 C   0  0  0  0  0  0  0  0  0  0  0  0
    8.0622    0.4400    0.0000 C   0  0  0  0  0  0  0  0  0  0  0  0
    9.7942    1.4400    0.0000 C   0  0  0  0  0  0  0  0  0  0  0  0
    4.8101   -0.1426    0.0000 H   0  0  0  0  0  0  0  0  0  0  0  0
    5.2087    0.5477    0.0000 H   0  0  0  0  0  0  0  0  0  0  0  0
    3.5200    0.5226    0.0000 H   0  0  0  0  0  0  0  0  0  0  0  0
    3.1215   -0.1677    0.0000 H   0  0  0  0  0  0  0  0  0  0  0  0
    5.9316    0.9651    0.0000 H   0  0  0  0  0  0  0  0  0  0  0  0
    6.7287    0.9651    0.0000 H   0  0  0  0  0  0  0  0  0  0  0  0
    5.4641    2.5600    0.0000 H   0  0  0  0  0  0  0  0  0  0  0  0
    7.5947    2.4150    0.0000 H   0  0  0  0  0  0  0  0  0  0  0  0
    6.7976    2.4150    0.0000 H   0  0  0  0  0  0  0  0  0  0  0  0
    4.2690   -1.3700    0.0000 H   0  0  0  0  0  0  0  0  0  0  0  0
    4.0420    2.4769    0.0000 H   0  0  0  0  0  0  0  0  0  0  0  0
    3.1951    2.2500    0.0000 H   0  0  0  0  0  0  0  0  0  0  0  0
    3.4220    1.4031    0.0000 H   0  0  0  0  0  0  0  0  0  0  0  0
    2.3100   -0.5231    0.0000 H   0  0  0  0  0  0  0  0  0  0  0  0
    2.2460   -2.5600    0.0000 H   0  0  0  0  0  0  0  0  0  0  0  0
    2.8660   -3.1800    0.0000 H   0  0  0  0  0  0  0  0  0  0  0  0
    3.4860   -2.5600    0.0000 H   0  0  0  0  0  0  0  0  0  0  0  0
    1.4631   -0.7500    0.0000 H   0  0  0  0  0  0  0  0  0  0  0  0
    1.6900   -1.5969    0.0000 H   0  0  0  0  0  0  0  0  0  0  0  0
    8.9282    2.5600    0.0000 H   0  0  0  0  0  0  0  0  0  0  0  0
    7.5252    0.1300    0.0000 H   0  0  0  0  0  0  0  0  0  0  0  0
    8.5991    0.1300    0.0000 H   0  0  0  0  0  0  0  0  0  0  0  0
    9.7942    0.8200    0.0000 H   0  0  0  0  0  0  0  0  0  0  0  0
   10.3312    1.7500    0.0000 H   0  0  0  0  0  0  0  0  0  0  0  0
  1  2  1  0  0  0  0
  1  3  1  0  0  0  0
  1 16  1  0  0  0  0
  1 17  1  0  0  0  0
  2  5  2  0  0  0  0
  2  8  1  0  0  0  0
  3  7  1  0  0  0  0
  3 18  1  0  0  0  0
  3 19  1  0  0  0  0
  4  5  1  0  0  0  0
  4  6  1  0  0  0  0
  4 20  1  0  0  0  0
  4 21  1  0  0  0  0
  5 22  1  0  0  0  0
  6 10  1  0  0  0  0
  6 23  1  0  0  0  0
  6 24  1  0  0  0  0
  7  9  2  0  0  0  0
  7 25  1  0  0  0  0
  8 26  1  0  0  0  0
  8 27  1  0  0  0  0
  8 28  1  0  0  0  0
  9 11  1  0  0  0  0
  9 12  1  0  0  0  0
 10 13  1  0  0  0  0
 10 14  2  0  0  0  0
 11 30  1  0  0  0  0
 11 31  1  0  0  0  0
 11 32  1  0  0  0  0
 12 29  1  0  0  0  0
 12 33  1  0  0  0  0
 12 34  1  0  0  0  0
 13 15  2  0  0  0  0
 13 35  1  0  0  0  0
 14 36  1  0  0  0  0
 14 37  1  0  0  0  0
 15 38  1  0  0  0  0
 15 39  1  0  0  0  0
M  END
> <PUBCHEM_COMPOUND_CID>
5317319

> <PUBCHEM_COMPOUND_CANONICALIZED>
1

> <PUBCHEM_CACTVS_COMPLEXITY>
260

> <PUBCHEM_CACTVS_HBOND_ACCEPTOR>
0

> <PUBCHEM_CACTVS_HBOND_DONOR>
0

> <PUBCHEM_CACTVS_ROTATABLE_BOND>
7

> <PUBCHEM_CACTVS_SUBSKEYS>
AAADceBwAAAAAAAAAAAAAAAAAAAAAAAAAAAAAAAAAAAAAAAAAAAAGAAAAAAADACAAAACAAAAAACAAiBCAAAAAAAgAAAICAAAAAgIAAIAAQAAAAAAgAAIAAIAAAAAAAAAAAAAAAAAAAAAAAAAAAAAAAAAAA==

> <PUBCHEM_IUPAC_OPENEYE_NAME>
(6~{Z})-7,11-dimethyl-3-methylene-dodeca-1,6,10-triene

> <PUBCHEM_IUPAC_CAS_NAME>
(6~{Z})-7,11-dimethyl-3-methylenedodeca-1,6,10-triene

> <PUBCHEM_IUPAC_NAME>
(6~{Z})-7,11-dimethyl-3-methylidenedodeca-1,6,10-triene

> <PUBCHEM_IUPAC_SYSTEMATIC_NAME>
(6~{Z})-7,11-dimethyl-3-methylidene-dodeca-1,6,10-triene

> <PUBCHEM_IUPAC_TRADITIONAL_NAME>
(6~{Z})-7,11-dimethyl-3-methylene-dodeca-1,6,10-triene

> <PUBCHEM_IUPAC_INCHI>
InChI=1S/C15H24/c1-6-14(4)10-8-12-15(5)11-7-9-13(2)3/h6,9,12H,1,4,7-8,10-11H2,2-3,5H3/b15-12-

> <PUBCHEM_IUPAC_INCHIKEY>
JSNRRGGBADWTMC-QINSGFPZSA-N

> <PUBCHEM_XLOGP3_AA>
6.2

> <PUBCHEM_EXACT_MASS>
204.188

> <PUBCHEM_MOLECULAR_FORMULA>
C15H24

> <PUBCHEM_MOLECULAR_WEIGHT>
204.357

> <PUBCHEM_OPENEYE_CAN_SMILES>
CC(=CCCC(=CCCC(=C)C=C)C)C

> <PUBCHEM_OPENEYE_ISO_SMILES>
CC(=CCC/C(=C\CCC(=C)C=C)/C)C

> <PUBCHEM_CACTVS_TPSA>
0

> <PUBCHEM_MONOISOTOPIC_WEIGHT>
204.188

> <PUBCHEM_TOTAL_CHARGE>
0

> <PUBCHEM_HEAVY_ATOM_COUNT>
15

> <PUBCHEM_ATOM_DEF_STEREO_COUNT>
0

> <PUBCHEM_ATOM_UDEF_STEREO_COUNT>
0

> <PUBCHEM_BOND_DEF_STEREO_COUNT>
1

> <PUBCHEM_BOND_UDEF_STEREO_COUNT>
0

> <PUBCHEM_ISOTOPIC_ATOM_COUNT>
0

> <PUBCHEM_COMPONENT_COUNT>
1

> <PUBCHEM_CACTVS_TAUTO_COUNT>
-1

> <PUBCHEM_COORDINATE_TYPE>
1
5
255

$$$$
